Program Version,EnergyPlus, Version 9.3.0-baff08990c, YMD=2020.05.18 16:46,
   ** Warning ** Timestep: Requested number (1) is less than the suggested minimum of 4.
   **   ~~~   ** Please see entry for Timestep in Input/Output Reference for discussion of considerations.
   ************* Beginning Zone Sizing Calculations
   ** Warning ** ProcessScheduleInput: Schedule:Constant="ALWAYS_ON", Blank Schedule Type Limits Name input -- will not be validated.
   ** Warning ** ProcessScheduleInput: Schedule:Constant="ALWAYS ON DISCRETE", Blank Schedule Type Limits Name input -- will not be validated.
   ** Warning ** ProcessScheduleInput: Schedule:Constant="ALWAYS ON DISCRETE 1", Blank Schedule Type Limits Name input -- will not be validated.
   ** Warning ** ProcessScheduleInput: Schedule:Constant="ALWAYS OFF DISCRETE", Blank Schedule Type Limits Name input -- will not be validated.
   ** Warning ** ProcessScheduleInput: Schedule:Constant="ALWAYS ON CONTINUOUS", Blank Schedule Type Limits Name input -- will not be validated.
   ** Warning ** ProcessScheduleInput: Schedule:Constant="ALWAYS ON DISCRETE 2", Blank Schedule Type Limits Name input -- will not be validated.
   ** Warning ** GetHTSurfaceData: Surfaces with interface to Ground found but no "Ground Temperatures" were input.
   **   ~~~   ** Found first in surface=SURFACE 1830
   **   ~~~   ** Defaults, constant throughout the year of (18.0) will be used.
   ** Warning ** BuildingSurface:Detailed="SURFACE 1830", underground Floor Area = 4.08E-003
   **   ~~~   ** ..which does not match its construction area.
   ** Warning ** BuildingSurface:Detailed="SURFACE 1830", underground Floor Perimeter = 1.28
   **   ~~~   ** ..which is less than its construction exposed perimeter.
   ** Warning ** BuildingSurface:Detailed="SURFACE 1832", underground Floor Area = 1.23E-002
   **   ~~~   ** ..which does not match its construction area.
   ** Warning ** BuildingSurface:Detailed="SURFACE 1832", underground Floor Perimeter = 3.88
   **   ~~~   ** ..which is less than its construction exposed perimeter.
   ** Warning ** BuildingSurface:Detailed="SURFACE 326", underground Floor Area = 18.73
   **   ~~~   ** ..which does not match its construction area.
   ** Warning ** BuildingSurface:Detailed="SURFACE 326", underground Floor Perimeter = 18.82
   **   ~~~   ** ..which is less than its construction exposed perimeter.
   ** Warning ** BuildingSurface:Detailed="SURFACE 1410", underground Floor Area = 7.89E-003
   **   ~~~   ** ..which does not match its construction area.
   ** Warning ** BuildingSurface:Detailed="SURFACE 1410", underground Floor Perimeter = 2.48
   **   ~~~   ** ..which is less than its construction exposed perimeter.
   ** Warning ** BuildingSurface:Detailed="SURFACE 320", underground Floor Area = 15.58
   **   ~~~   ** ..which does not match its construction area.
   ** Warning ** BuildingSurface:Detailed="SURFACE 320", underground Floor Perimeter = 17.86
   **   ~~~   ** ..which is less than its construction exposed perimeter.
   ** Warning ** BuildingSurface:Detailed="SURFACE 347", underground Floor Area = 9.45
   **   ~~~   ** ..which does not match its construction area.
   ** Warning ** BuildingSurface:Detailed="SURFACE 347", underground Floor Perimeter = 12.57
   **   ~~~   ** ..which is less than its construction exposed perimeter.
   ** Warning ** BuildingSurface:Detailed="SURFACE 51", underground Floor Area = 3.48E-003
   **   ~~~   ** ..which does not match its construction area.
   ** Warning ** BuildingSurface:Detailed="SURFACE 51", underground Floor Perimeter = 9.56
   **   ~~~   ** ..which is less than its construction exposed perimeter.
   ** Warning ** BuildingSurface:Detailed="SURFACE 1403", underground Floor Area = 9.28E-003
   **   ~~~   ** ..which does not match its construction area.
   ** Warning ** BuildingSurface:Detailed="SURFACE 1403", underground Floor Perimeter = 2.92
   **   ~~~   ** ..which is less than its construction exposed perimeter.
   ** Warning ** BuildingSurface:Detailed="SURFACE 314", underground Floor Area = 19.20
   **   ~~~   ** ..which does not match its construction area.
   ** Warning ** BuildingSurface:Detailed="SURFACE 314", underground Floor Perimeter = 18.96
   **   ~~~   ** ..which is less than its construction exposed perimeter.
   ** Warning ** BuildingSurface:Detailed="SURFACE 339", underground Floor Area = 19.17
   **   ~~~   ** ..which does not match its construction area.
   ** Warning ** BuildingSurface:Detailed="SURFACE 339", underground Floor Perimeter = 18.96
   **   ~~~   ** ..which is less than its construction exposed perimeter.
   ** Warning ** BuildingSurface:Detailed="SURFACE 333", underground Floor Area = 6.85
   **   ~~~   ** ..which does not match its construction area.
   ** Warning ** BuildingSurface:Detailed="SURFACE 333", underground Floor Perimeter = 10.48
   **   ~~~   ** ..which is less than its construction exposed perimeter.
   ** Warning ** CalcSurfaceCentroid: 33 Surfaces have the Z coordinate < 0.
   **   ~~~   ** ...in any calculations, Wind Speed will be 0.0 for these surfaces.
   **   ~~~   ** ...in any calculations, Outside temperatures will be the outside temperature + 9.750E-003 for these surfaces.
   **   ~~~   ** ...that is, these surfaces will have conditions as though at ground level.
   ** Warning ** GetSurfaceData: There are 19 coincident/collinear vertices; These have been deleted unless the deletion would bring the number of surface sides < 3.
   **   ~~~   ** For explicit details on each problem surface, use Output:Diagnostics,DisplayExtraWarnings;
   ** Severe  ** GetSurfaceData: There are 12 degenerate surfaces; Degenerate surfaces are those with number of sides < 3.
   **   ~~~   ** These surfaces should be deleted.
   **   ~~~   ** For explicit details on each problem surface, use Output:Diagnostics,DisplayExtraWarnings;
   ** Warning ** CalculateZoneVolume: 14 zones are not fully enclosed. For more details use:  Output:Diagnostics,DisplayExtrawarnings; 
   ** Warning ** CheckUsedConstructions: There are 38 nominally unused constructions in input.
   **   ~~~   ** For explicit details on each unused construction, use Output:Diagnostics,DisplayExtraWarnings;
   ** Warning ** DetermineShadowingCombinations: There are 7 surfaces which are receiving surfaces and are non-convex.
   **   ~~~   ** ...Shadowing values may be inaccurate. Check .shd report file for more surface shading details
   **   ~~~   ** ...Add Output:Diagnostics,DisplayExtraWarnings; to see individual warnings for each surface.
   ** Severe  ** DetermineShadowingCombinations: There are 5 surfaces which are casting surfaces and are non-convex.
   **   ~~~   ** ...Shadowing values may be inaccurate. Check .shd report file for more surface shading details
   **   ~~~   ** ...Add Output:Diagnostics,DisplayExtraWarnings; to see individual severes for each surface.
   ** Warning ** GetSimpleAirModelInputs: ZoneInfiltration:DesignFlowRate="THERMAL ZONE: CORR_0300 HIGHRISEAPARTMENT CORRIDOR INFILTRATION", Design Flow Rate Calculation Method specifies Flow per Exterior Surface Area, but Exterior Surface Area = 0.  0 Infiltration will result.
   ** Warning ** GetSimpleAirModelInputs: ZoneInfiltration:DesignFlowRate="THERMAL ZONE: CORR_0400 HIGHRISEAPARTMENT CORRIDOR INFILTRATION", Design Flow Rate Calculation Method specifies Flow per Exterior Surface Area, but Exterior Surface Area = 0.  0 Infiltration will result.
   ** Warning ** GetSimpleAirModelInputs: ZoneInfiltration:DesignFlowRate="THERMAL ZONE: CORR_0500 HIGHRISEAPARTMENT CORRIDOR INFILTRATION", Design Flow Rate Calculation Method specifies Flow per Exterior Surface Area, but Exterior Surface Area = 0.  0 Infiltration will result.
   ** Warning ** GetSimpleAirModelInputs: ZoneInfiltration:DesignFlowRate="THERMAL ZONE: ELEV LOBBY_2300 HIGHRISEAPARTMENT CORRIDOR INFILTRATION", Design Flow Rate Calculation Method specifies Flow per Exterior Surface Area, but Exterior Surface Area = 0.  0 Infiltration will result.
   ** Warning ** GetSimpleAirModelInputs: ZoneInfiltration:DesignFlowRate="THERMAL ZONE: ELEC_0300 HIGHRISEAPARTMENT CORRIDOR INFILTRATION 3", Design Flow Rate Calculation Method specifies Flow per Exterior Surface Area, but Exterior Surface Area = 0.  0 Infiltration will result.
   ** Warning ** GetSimpleAirModelInputs: ZoneInfiltration:DesignFlowRate="THERMAL ZONE: ELEC_0400 HIGHRISEAPARTMENT CORRIDOR INFILTRATION 3", Design Flow Rate Calculation Method specifies Flow per Exterior Surface Area, but Exterior Surface Area = 0.  0 Infiltration will result.
   ** Warning ** GetSimpleAirModelInputs: ZoneInfiltration:DesignFlowRate="THERMAL ZONE: MECH_0300 HIGHRISEAPARTMENT CORRIDOR INFILTRATION 3", Design Flow Rate Calculation Method specifies Flow per Exterior Surface Area, but Exterior Surface Area = 0.  0 Infiltration will result.
   ** Warning ** GetSimpleAirModelInputs: ZoneInfiltration:DesignFlowRate="THERMAL ZONE: MECH_0400 HIGHRISEAPARTMENT CORRIDOR INFILTRATION 3", Design Flow Rate Calculation Method specifies Flow per Exterior Surface Area, but Exterior Surface Area = 0.  0 Infiltration will result.
   ** Warning ** GetSimpleAirModelInputs: ZoneInfiltration:DesignFlowRate="THERMAL ZONE: MECH_0500 HIGHRISEAPARTMENT CORRIDOR INFILTRATION 3", Design Flow Rate Calculation Method specifies Flow per Exterior Surface Area, but Exterior Surface Area = 0.  0 Infiltration will result.
   ** Warning ** GetSimpleAirModelInputs: ZoneInfiltration:DesignFlowRate="THERMAL ZONE: MECH_2100 HIGHRISEAPARTMENT CORRIDOR INFILTRATION 3", Design Flow Rate Calculation Method specifies Flow per Exterior Surface Area, but Exterior Surface Area = 0.  0 Infiltration will result.
   ** Warning ** GetSimpleAirModelInputs: ZoneInfiltration:DesignFlowRate="THERMAL ZONE: RESTROOM_2300 HIGHRISEAPARTMENT CORRIDOR INFILTRATION 2", Design Flow Rate Calculation Method specifies Flow per Exterior Surface Area, but Exterior Surface Area = 0.  0 Infiltration will result.
   ** Warning ** GetSimpleAirModelInputs: ZoneInfiltration:DesignFlowRate="THERMAL ZONE: ELEV_0102 HIGHRISEAPARTMENT CORRIDOR INFILTRATION 8", Design Flow Rate Calculation Method specifies Flow per Exterior Surface Area, but Exterior Surface Area = 0.  0 Infiltration will result.
   ** Warning ** GetSimpleAirModelInputs: ZoneInfiltration:DesignFlowRate="THERMAL ZONE: ELEV_0201 HIGHRISEAPARTMENT CORRIDOR INFILTRATION 8", Design Flow Rate Calculation Method specifies Flow per Exterior Surface Area, but Exterior Surface Area = 0.  0 Infiltration will result.
   ** Warning ** GetSimpleAirModelInputs: ZoneInfiltration:DesignFlowRate="THERMAL ZONE: ELEV_0202 HIGHRISEAPARTMENT CORRIDOR INFILTRATION 8", Design Flow Rate Calculation Method specifies Flow per Exterior Surface Area, but Exterior Surface Area = 0.  0 Infiltration will result.
   ** Warning ** GetSimpleAirModelInputs: ZoneInfiltration:DesignFlowRate="THERMAL ZONE: ELEV_0301 HIGHRISEAPARTMENT CORRIDOR INFILTRATION 8", Design Flow Rate Calculation Method specifies Flow per Exterior Surface Area, but Exterior Surface Area = 0.  0 Infiltration will result.
   ** Warning ** GetSimpleAirModelInputs: ZoneInfiltration:DesignFlowRate="THERMAL ZONE: ELEV_0302 HIGHRISEAPARTMENT CORRIDOR INFILTRATION 8", Design Flow Rate Calculation Method specifies Flow per Exterior Surface Area, but Exterior Surface Area = 0.  0 Infiltration will result.
   ** Warning ** GetSimpleAirModelInputs: ZoneInfiltration:DesignFlowRate="THERMAL ZONE: ELEV_0401 HIGHRISEAPARTMENT CORRIDOR INFILTRATION 8", Design Flow Rate Calculation Method specifies Flow per Exterior Surface Area, but Exterior Surface Area = 0.  0 Infiltration will result.
   ** Warning ** GetSimpleAirModelInputs: ZoneInfiltration:DesignFlowRate="THERMAL ZONE: ELEV_0402 HIGHRISEAPARTMENT CORRIDOR INFILTRATION 8", Design Flow Rate Calculation Method specifies Flow per Exterior Surface Area, but Exterior Surface Area = 0.  0 Infiltration will result.
   ** Warning ** GetSimpleAirModelInputs: ZoneInfiltration:DesignFlowRate="THERMAL ZONE: ELEV_0501 HIGHRISEAPARTMENT CORRIDOR INFILTRATION 8", Design Flow Rate Calculation Method specifies Flow per Exterior Surface Area, but Exterior Surface Area = 0.  0 Infiltration will result.
   ** Warning ** GetSimpleAirModelInputs: ZoneInfiltration:DesignFlowRate="THERMAL ZONE: ELEV_0502 HIGHRISEAPARTMENT CORRIDOR INFILTRATION 8", Design Flow Rate Calculation Method specifies Flow per Exterior Surface Area, but Exterior Surface Area = 0.  0 Infiltration will result.
   ** Warning ** GetSimpleAirModelInputs: ZoneInfiltration:DesignFlowRate="THERMAL ZONE: ELEV_2101 HIGHRISEAPARTMENT CORRIDOR INFILTRATION 8", Design Flow Rate Calculation Method specifies Flow per Exterior Surface Area, but Exterior Surface Area = 0.  0 Infiltration will result.
   ** Warning ** GetSimpleAirModelInputs: ZoneInfiltration:DesignFlowRate="THERMAL ZONE: ELEV_2102 HIGHRISEAPARTMENT CORRIDOR INFILTRATION 8", Design Flow Rate Calculation Method specifies Flow per Exterior Surface Area, but Exterior Surface Area = 0.  0 Infiltration will result.
   ** Warning ** GetSimpleAirModelInputs: ZoneInfiltration:DesignFlowRate="THERMAL ZONE: ELEV_2301 HIGHRISEAPARTMENT CORRIDOR INFILTRATION 8", Design Flow Rate Calculation Method specifies Flow per Exterior Surface Area, but Exterior Surface Area = 0.  0 Infiltration will result.
   ** Warning ** GetSimpleAirModelInputs: ZoneInfiltration:DesignFlowRate="THERMAL ZONE: ELEV_2302 HIGHRISEAPARTMENT CORRIDOR INFILTRATION 8", Design Flow Rate Calculation Method specifies Flow per Exterior Surface Area, but Exterior Surface Area = 0.  0 Infiltration will result.
   ** Warning ** GetSimpleAirModelInputs: ZoneInfiltration:DesignFlowRate="THERMAL ZONE: STAIR_0102 HIGHRISEAPARTMENT CORRIDOR INFILTRATION 5", Design Flow Rate Calculation Method specifies Flow per Exterior Surface Area, but Exterior Surface Area = 0.  0 Infiltration will result.
   ** Warning ** GetSimpleAirModelInputs: ZoneInfiltration:DesignFlowRate="THERMAL ZONE: STAIR_0202 HIGHRISEAPARTMENT CORRIDOR INFILTRATION 5", Design Flow Rate Calculation Method specifies Flow per Exterior Surface Area, but Exterior Surface Area = 0.  0 Infiltration will result.
   ** Warning ** GetSimpleAirModelInputs: ZoneInfiltration:DesignFlowRate="THERMAL ZONE: STAIR_0301 HIGHRISEAPARTMENT CORRIDOR INFILTRATION 5", Design Flow Rate Calculation Method specifies Flow per Exterior Surface Area, but Exterior Surface Area = 0.  0 Infiltration will result.
   ** Warning ** GetSimpleAirModelInputs: ZoneInfiltration:DesignFlowRate="THERMAL ZONE: STAIR_0302 HIGHRISEAPARTMENT CORRIDOR INFILTRATION 5", Design Flow Rate Calculation Method specifies Flow per Exterior Surface Area, but Exterior Surface Area = 0.  0 Infiltration will result.
   ** Warning ** GetSimpleAirModelInputs: ZoneInfiltration:DesignFlowRate="THERMAL ZONE: STAIR_0401 HIGHRISEAPARTMENT CORRIDOR INFILTRATION 5", Design Flow Rate Calculation Method specifies Flow per Exterior Surface Area, but Exterior Surface Area = 0.  0 Infiltration will result.
   ** Warning ** GetSimpleAirModelInputs: ZoneInfiltration:DesignFlowRate="THERMAL ZONE: STAIR_0402 HIGHRISEAPARTMENT CORRIDOR INFILTRATION 5", Design Flow Rate Calculation Method specifies Flow per Exterior Surface Area, but Exterior Surface Area = 0.  0 Infiltration will result.
   ** Warning ** GetSimpleAirModelInputs: ZoneInfiltration:DesignFlowRate="THERMAL ZONE: STAIR_0501 HIGHRISEAPARTMENT CORRIDOR INFILTRATION 5", Design Flow Rate Calculation Method specifies Flow per Exterior Surface Area, but Exterior Surface Area = 0.  0 Infiltration will result.
   ** Warning ** GetSimpleAirModelInputs: ZoneInfiltration:DesignFlowRate="THERMAL ZONE: STAIR_0502 HIGHRISEAPARTMENT CORRIDOR INFILTRATION 5", Design Flow Rate Calculation Method specifies Flow per Exterior Surface Area, but Exterior Surface Area = 0.  0 Infiltration will result.
   ** Warning ** GetSimpleAirModelInputs: ZoneInfiltration:DesignFlowRate="THERMAL ZONE: STAIR_2101 HIGHRISEAPARTMENT CORRIDOR INFILTRATION 5", Design Flow Rate Calculation Method specifies Flow per Exterior Surface Area, but Exterior Surface Area = 0.  0 Infiltration will result.
   ** Warning ** GetSimpleAirModelInputs: ZoneInfiltration:DesignFlowRate="THERMAL ZONE: STAIR_2102 HIGHRISEAPARTMENT CORRIDOR INFILTRATION 5", Design Flow Rate Calculation Method specifies Flow per Exterior Surface Area, but Exterior Surface Area = 0.  0 Infiltration will result.
   ** Warning ** GetSimpleAirModelInputs: ZoneInfiltration:DesignFlowRate="THERMAL ZONE: STAIR_2201 HIGHRISEAPARTMENT CORRIDOR INFILTRATION 5", Design Flow Rate Calculation Method specifies Flow per Exterior Surface Area, but Exterior Surface Area = 0.  0 Infiltration will result.
   ** Warning ** GetSimpleAirModelInputs: ZoneInfiltration:DesignFlowRate="THERMAL ZONE: STAIR_2202 HIGHRISEAPARTMENT CORRIDOR INFILTRATION 5", Design Flow Rate Calculation Method specifies Flow per Exterior Surface Area, but Exterior Surface Area = 0.  0 Infiltration will result.
   ** Warning ** GetSimpleAirModelInputs: ZoneInfiltration:DesignFlowRate="THERMAL ZONE: STOR_0100 HIGHRISEAPARTMENT CORRIDOR INFILTRATION 6", Design Flow Rate Calculation Method specifies Flow per Exterior Surface Area, but Exterior Surface Area = 0.  0 Infiltration will result.
   ** Warning ** GetSimpleAirModelInputs: ZoneInfiltration:DesignFlowRate="THERMAL ZONE: STOR_0200 HIGHRISEAPARTMENT CORRIDOR INFILTRATION 6", Design Flow Rate Calculation Method specifies Flow per Exterior Surface Area, but Exterior Surface Area = 0.  0 Infiltration will result.
   ** Warning ** GetSimpleAirModelInputs: ZoneInfiltration:DesignFlowRate="THERMAL ZONE: STOR_0300 HIGHRISEAPARTMENT CORRIDOR INFILTRATION 6", Design Flow Rate Calculation Method specifies Flow per Exterior Surface Area, but Exterior Surface Area = 0.  0 Infiltration will result.
   ** Warning ** GetSimpleAirModelInputs: ZoneInfiltration:DesignFlowRate="THERMAL ZONE: STOR_0400 HIGHRISEAPARTMENT CORRIDOR INFILTRATION 6", Design Flow Rate Calculation Method specifies Flow per Exterior Surface Area, but Exterior Surface Area = 0.  0 Infiltration will result.
   ** Warning ** GetSimpleAirModelInputs: ZoneInfiltration:DesignFlowRate="THERMAL ZONE: STOR_0500 HIGHRISEAPARTMENT CORRIDOR INFILTRATION 6", Design Flow Rate Calculation Method specifies Flow per Exterior Surface Area, but Exterior Surface Area = 0.  0 Infiltration will result.
   ** Warning ** GetSimpleAirModelInputs: ZoneInfiltration:DesignFlowRate="THERMAL ZONE: STOR_2100 HIGHRISEAPARTMENT CORRIDOR INFILTRATION 6", Design Flow Rate Calculation Method specifies Flow per Exterior Surface Area, but Exterior Surface Area = 0.  0 Infiltration will result.
   ** Warning ** GetSimpleAirModelInputs: ZoneInfiltration:DesignFlowRate="THERMAL ZONE: TRASH_0300 HIGHRISEAPARTMENT CORRIDOR INFILTRATION 6", Design Flow Rate Calculation Method specifies Flow per Exterior Surface Area, but Exterior Surface Area = 0.  0 Infiltration will result.
   ** Warning ** GetSimpleAirModelInputs: ZoneInfiltration:DesignFlowRate="THERMAL ZONE: TRASH_0400 HIGHRISEAPARTMENT CORRIDOR INFILTRATION 6", Design Flow Rate Calculation Method specifies Flow per Exterior Surface Area, but Exterior Surface Area = 0.  0 Infiltration will result.
   ** Warning ** GetSimpleAirModelInputs: ZoneInfiltration:DesignFlowRate="THERMAL ZONE: TRASH_0500 HIGHRISEAPARTMENT CORRIDOR INFILTRATION 6", Design Flow Rate Calculation Method specifies Flow per Exterior Surface Area, but Exterior Surface Area = 0.  0 Infiltration will result.
   ** Warning ** GetSimpleAirModelInputs: ZoneInfiltration:DesignFlowRate="THERMAL ZONE: TRASH_2100 HIGHRISEAPARTMENT CORRIDOR INFILTRATION 6", Design Flow Rate Calculation Method specifies Flow per Exterior Surface Area, but Exterior Surface Area = 0.  0 Infiltration will result.
   ** Warning ** GetSimpleAirModelInputs: ZoneInfiltration:DesignFlowRate="THERMAL ZONE: XFMR_0201 HIGHRISEAPARTMENT CORRIDOR INFILTRATION 4", Design Flow Rate Calculation Method specifies Flow per Exterior Surface Area, but Exterior Surface Area = 0.  0 Infiltration will result.
   ** Warning ** GetSimpleAirModelInputs: ZoneInfiltration:DesignFlowRate="THERMAL ZONE: XFMR_0401 HIGHRISEAPARTMENT CORRIDOR INFILTRATION 4", Design Flow Rate Calculation Method specifies Flow per Exterior Surface Area, but Exterior Surface Area = 0.  0 Infiltration will result.
   ************* Beginning Plant Sizing Calculations
   ** Warning ** Output:Meter:MeterFileOnly requested for "Electricity:Facility" (TimeStep), already on "Output:Meter". Will report to both eplusout.eso and eplusout.mtr
   ************* Testing Individual Branch Integrity
   ************* All Branches passed integrity testing
   ************* Testing Individual Supply Air Path Integrity
   ************* All Supply Air Paths passed integrity testing
   ************* Testing Individual Return Air Path Integrity
   ************* All Return Air Paths passed integrity testing
   ************* No node connection errors were found.
   ************* Beginning Simulation
   ** Warning ** Processing Monthly Tabular Reports: Variable names not valid for this simulation
   **   ~~~   ** ...use Output:Diagnostics,DisplayExtraWarnings; to show more details on individual variables.
   ** Warning ** Plant Loop: DHW Demand Side is storing excess heat the majority of the time.
   ** Warning ** Plant Loop: DHW Supply Side is storing excess heat the majority of the time.
   ** Warning ** The resource referenced by LifeCycleCost:UsePriceEscalation= "U.S. AVG  COMMERCIAL-ELECTRICITY" has no energy cost. 
   **   ~~~   ** ... It is likely that the wrong resource is used. The resource should match the meter used in Utility:Tariff.
   ** Warning ** The resource referenced by LifeCycleCost:UsePriceEscalation= "U.S. AVG  COMMERCIAL-DISTILLATE OIL" has no energy cost. 
   **   ~~~   ** ... It is likely that the wrong resource is used. The resource should match the meter used in Utility:Tariff.
   ** Warning ** The resource referenced by LifeCycleCost:UsePriceEscalation= "U.S. AVG  COMMERCIAL-RESIDUAL OIL" has no energy cost. 
   **   ~~~   ** ... It is likely that the wrong resource is used. The resource should match the meter used in Utility:Tariff.
   ** Warning ** The resource referenced by LifeCycleCost:UsePriceEscalation= "U.S. AVG  COMMERCIAL-NATURAL GAS" has no energy cost. 
   **   ~~~   ** ... It is likely that the wrong resource is used. The resource should match the meter used in Utility:Tariff.
   ** Warning ** The resource referenced by LifeCycleCost:UsePriceEscalation= "U.S. AVG  COMMERCIAL-COAL" has no energy cost. 
   **   ~~~   ** ... It is likely that the wrong resource is used. The resource should match the meter used in Utility:Tariff.
   ************* Simulation Error Summary *************
   ************* There are 17 unused schedules in input.
   ************* There are 17 unused week schedules in input.
   ************* There are 46 unused day schedules in input.
   ************* Use Output:Diagnostics,DisplayUnusedSchedules; to see them.
   *************
   ************* ===== Final Error Summary =====
   ************* The following error categories occurred.  Consider correcting or noting.
   ************* Nominally Unused Constructions
   ************* ..The nominally unused constructions warning is provided to alert you to potential conditions that can cause
   ************* ..extra time during simulation. Each construction is calculated by the algorithm indicated in the HeatBalanceAlgorithm
   ************* ..object. You may remove the constructions indicated (when you use the DisplayExtraWarnings option).
   *************
   ************* EnergyPlus Warmup Error Summary. During Warmup: 0 Warning; 0 Severe Errors.
   ************* EnergyPlus Sizing Error Summary. During Sizing: 80 Warning; 0 Severe Errors.
   ************* EnergyPlus Completed Successfully-- 116 Warning; 17 Severe Errors; Elapsed Time=00hr 01min 11.81sec
