Program Version,EnergyPlus, Version 9.3.0-baff08990c, YMD=2020.05.18 16:46
! This file shows details about the branches, nodes, and other
! elements of the flow connections.
! This file is intended for use in "debugging" potential problems
! that may also be detected by the program, but may be more easily
! identified by "eye".
! This file is also intended to support software which draws a
! schematic diagram of the HVAC system.
! ===============================================================
! #Nodes,<Number of Unique Nodes>
 #Nodes,561
! <Node>,<NodeNumber>,<Node Name>,<Node Fluid Type>,<# Times Node Referenced After Definition>
 Node,1,DHW SUPPLY INLET NODE,Water,2
 Node,2,NODE 192,Water,1
 Node,3,NODE 185,Water,1
 Node,4,NODE 187,Water,1
 Node,5,NODE 184,Water,1
 Node,6,DHW SUPPLY OUTLET NODE,Water,4
 Node,7,DHW DEMAND INLET NODE,Water,2
 Node,8,NODE 183,Water,1
 Node,9,NODE 193,Water,1
 Node,10,NODE 194,Water,1
 Node,11,DHW DEMAND BYPASS PIPE INLET NODE,Water,1
 Node,12,DHW DEMAND BYPASS PIPE OUTLET NODE,Water,1
 Node,13,NODE 186,Water,1
 Node,14,DHW DEMAND OUTLET NODE,Water,2
 Node,15,THERMAL ZONE: AMEN_0300 ZONE AIR NODE,Air,0
 Node,16,THERMAL ZONE: AMEN_0300 IDEAL LOADS SUPPLY INLET,Air,1
 Node,17,THERMAL ZONE: AMEN_0300 RETURN OUTLET,Air,0
 Node,18,THERMAL ZONE: AMEN_0400 ZONE AIR NODE,Air,0
 Node,19,THERMAL ZONE: AMEN_0400 IDEAL LOADS SUPPLY INLET,Air,1
 Node,20,THERMAL ZONE: AMEN_0400 RETURN OUTLET,Air,0
 Node,21,THERMAL ZONE: AMEN_0501 ZONE AIR NODE,Air,0
 Node,22,THERMAL ZONE: AMEN_0501 IDEAL LOADS SUPPLY INLET,Air,1
 Node,23,THERMAL ZONE: AMEN_0501 RETURN OUTLET,Air,0
 Node,24,THERMAL ZONE: AMEN_2100 ZONE AIR NODE,Air,0
 Node,25,THERMAL ZONE: AMEN_2100 IDEAL LOADS SUPPLY INLET,Air,1
 Node,26,THERMAL ZONE: AMEN_2100 RETURN OUTLET,Air,0
 Node,27,THERMAL ZONE: AMEN_2200 ZONE AIR NODE,Air,0
 Node,28,THERMAL ZONE: AMEN_2200 IDEAL LOADS SUPPLY INLET,Air,1
 Node,29,THERMAL ZONE: AMEN_2200 RETURN OUTLET,Air,0
 Node,30,THERMAL ZONE: AMEN_2300 ZONE AIR NODE,Air,0
 Node,31,THERMAL ZONE: AMEN_2300 IDEAL LOADS SUPPLY INLET,Air,1
 Node,32,THERMAL ZONE: AMEN_2300 RETURN OUTLET,Air,0
 Node,33,THERMAL ZONE: BOH_0100 ZONE AIR NODE,Air,0
 Node,34,THERMAL ZONE: BOH_0100 IDEAL LOADS SUPPLY INLET,Air,1
 Node,35,THERMAL ZONE: BOH_0100 RETURN OUTLET,Air,0
 Node,36,THERMAL ZONE: CORR_0100 ZONE AIR NODE,Air,0
 Node,37,THERMAL ZONE: CORR_0100 IDEAL LOADS SUPPLY INLET,Air,1
 Node,38,THERMAL ZONE: CORR_0100 RETURN OUTLET,Air,0
 Node,39,THERMAL ZONE: CORR_0200 ZONE AIR NODE,Air,0
 Node,40,THERMAL ZONE: CORR_0200 IDEAL LOADS SUPPLY INLET,Air,1
 Node,41,THERMAL ZONE: CORR_0200 RETURN OUTLET,Air,0
 Node,42,THERMAL ZONE: CORR_0300 ZONE AIR NODE,Air,0
 Node,43,THERMAL ZONE: CORR_0300 IDEAL LOADS SUPPLY INLET,Air,1
 Node,44,THERMAL ZONE: CORR_0300 RETURN OUTLET,Air,0
 Node,45,THERMAL ZONE: CORR_0400 ZONE AIR NODE,Air,0
 Node,46,THERMAL ZONE: CORR_0400 IDEAL LOADS SUPPLY INLET,Air,1
 Node,47,THERMAL ZONE: CORR_0400 RETURN OUTLET,Air,0
 Node,48,THERMAL ZONE: CORR_0500 ZONE AIR NODE,Air,0
 Node,49,THERMAL ZONE: CORR_0500 IDEAL LOADS SUPPLY INLET,Air,1
 Node,50,THERMAL ZONE: CORR_0500 RETURN OUTLET,Air,0
 Node,51,THERMAL ZONE: CORR_2100 ZONE AIR NODE,Air,0
 Node,52,THERMAL ZONE: CORR_2100 IDEAL LOADS SUPPLY INLET,Air,1
 Node,53,THERMAL ZONE: CORR_2100 RETURN OUTLET,Air,0
 Node,54,THERMAL ZONE: CORR_2300 ZONE AIR NODE,Air,0
 Node,55,THERMAL ZONE: CORR_2300 IDEAL LOADS SUPPLY INLET,Air,1
 Node,56,THERMAL ZONE: CORR_2300 RETURN OUTLET,Air,0
 Node,57,THERMAL ZONE: CORR_2301 ZONE AIR NODE,Air,0
 Node,58,THERMAL ZONE: CORR_2301 IDEAL LOADS SUPPLY INLET,Air,1
 Node,59,THERMAL ZONE: CORR_2301 RETURN OUTLET,Air,0
 Node,60,THERMAL ZONE: ELEC_0300 ZONE AIR NODE,Air,0
 Node,61,THERMAL ZONE: ELEC_0300 IDEAL LOADS SUPPLY INLET,Air,1
 Node,62,THERMAL ZONE: ELEC_0300 RETURN OUTLET,Air,0
 Node,63,THERMAL ZONE: ELEC_0400 ZONE AIR NODE,Air,0
 Node,64,THERMAL ZONE: ELEC_0400 IDEAL LOADS SUPPLY INLET,Air,1
 Node,65,THERMAL ZONE: ELEC_0400 RETURN OUTLET,Air,0
 Node,66,THERMAL ZONE: ELEV CONTROL_2301 ZONE AIR NODE,Air,0
 Node,67,THERMAL ZONE: ELEV CONTROL_2301 IDEAL LOADS SUPPLY INLET,Air,1
 Node,68,THERMAL ZONE: ELEV CONTROL_2301 RETURN OUTLET,Air,0
 Node,69,THERMAL ZONE: ELEV CONTROL_2302 ZONE AIR NODE,Air,0
 Node,70,THERMAL ZONE: ELEV CONTROL_2302 IDEAL LOADS SUPPLY INLET,Air,1
 Node,71,THERMAL ZONE: ELEV CONTROL_2302 RETURN OUTLET,Air,0
 Node,72,THERMAL ZONE: ELEV LOBBY_2300 ZONE AIR NODE,Air,0
 Node,73,THERMAL ZONE: ELEV LOBBY_2300 IDEAL LOADS SUPPLY INLET,Air,1
 Node,74,THERMAL ZONE: ELEV LOBBY_2300 RETURN OUTLET,Air,0
 Node,75,THERMAL ZONE: ELEV LOBBY_P101 ZONE AIR NODE,Air,0
 Node,76,THERMAL ZONE: ELEV LOBBY_P101 IDEAL LOADS SUPPLY INLET,Air,1
 Node,77,THERMAL ZONE: ELEV LOBBY_P101 RETURN OUTLET,Air,0
 Node,78,THERMAL ZONE: ELEV LOBBY_P200 ZONE AIR NODE,Air,0
 Node,79,THERMAL ZONE: ELEV LOBBY_P200 IDEAL LOADS SUPPLY INLET,Air,1
 Node,80,THERMAL ZONE: ELEV LOBBY_P200 RETURN OUTLET,Air,0
 Node,81,THERMAL ZONE: ELEV_0101 ZONE AIR NODE,Air,0
 Node,82,THERMAL ZONE: ELEV_0101 IDEAL LOADS SUPPLY INLET,Air,1
 Node,83,THERMAL ZONE: ELEV_0101 RETURN OUTLET,Air,0
 Node,84,THERMAL ZONE: ELEV_0102 ZONE AIR NODE,Air,0
 Node,85,THERMAL ZONE: ELEV_0102 IDEAL LOADS SUPPLY INLET,Air,1
 Node,86,THERMAL ZONE: ELEV_0102 RETURN OUTLET,Air,0
 Node,87,THERMAL ZONE: ELEV_0201 ZONE AIR NODE,Air,0
 Node,88,THERMAL ZONE: ELEV_0201 IDEAL LOADS SUPPLY INLET,Air,1
 Node,89,THERMAL ZONE: ELEV_0201 RETURN OUTLET,Air,0
 Node,90,THERMAL ZONE: ELEV_0202 ZONE AIR NODE,Air,0
 Node,91,THERMAL ZONE: ELEV_0202 IDEAL LOADS SUPPLY INLET,Air,1
 Node,92,THERMAL ZONE: ELEV_0202 RETURN OUTLET,Air,0
 Node,93,THERMAL ZONE: ELEV_0301 ZONE AIR NODE,Air,0
 Node,94,THERMAL ZONE: ELEV_0301 IDEAL LOADS SUPPLY INLET,Air,1
 Node,95,THERMAL ZONE: ELEV_0301 RETURN OUTLET,Air,0
 Node,96,THERMAL ZONE: ELEV_0302 ZONE AIR NODE,Air,0
 Node,97,THERMAL ZONE: ELEV_0302 IDEAL LOADS SUPPLY INLET,Air,1
 Node,98,THERMAL ZONE: ELEV_0302 RETURN OUTLET,Air,0
 Node,99,THERMAL ZONE: ELEV_0401 ZONE AIR NODE,Air,0
 Node,100,THERMAL ZONE: ELEV_0401 IDEAL LOADS SUPPLY INLET,Air,1
 Node,101,THERMAL ZONE: ELEV_0401 RETURN OUTLET,Air,0
 Node,102,THERMAL ZONE: ELEV_0402 ZONE AIR NODE,Air,0
 Node,103,THERMAL ZONE: ELEV_0402 IDEAL LOADS SUPPLY INLET,Air,1
 Node,104,THERMAL ZONE: ELEV_0402 RETURN OUTLET,Air,0
 Node,105,THERMAL ZONE: ELEV_0501 ZONE AIR NODE,Air,0
 Node,106,THERMAL ZONE: ELEV_0501 IDEAL LOADS SUPPLY INLET,Air,1
 Node,107,THERMAL ZONE: ELEV_0501 RETURN OUTLET,Air,0
 Node,108,THERMAL ZONE: ELEV_0502 ZONE AIR NODE,Air,0
 Node,109,THERMAL ZONE: ELEV_0502 IDEAL LOADS SUPPLY INLET,Air,1
 Node,110,THERMAL ZONE: ELEV_0502 RETURN OUTLET,Air,0
 Node,111,THERMAL ZONE: ELEV_2101 ZONE AIR NODE,Air,0
 Node,112,THERMAL ZONE: ELEV_2101 IDEAL LOADS SUPPLY INLET,Air,1
 Node,113,THERMAL ZONE: ELEV_2101 RETURN OUTLET,Air,0
 Node,114,THERMAL ZONE: ELEV_2102 ZONE AIR NODE,Air,0
 Node,115,THERMAL ZONE: ELEV_2102 IDEAL LOADS SUPPLY INLET,Air,1
 Node,116,THERMAL ZONE: ELEV_2102 RETURN OUTLET,Air,0
 Node,117,THERMAL ZONE: ELEV_2301 ZONE AIR NODE,Air,0
 Node,118,THERMAL ZONE: ELEV_2301 IDEAL LOADS SUPPLY INLET,Air,1
 Node,119,THERMAL ZONE: ELEV_2301 RETURN OUTLET,Air,0
 Node,120,THERMAL ZONE: ELEV_2302 ZONE AIR NODE,Air,0
 Node,121,THERMAL ZONE: ELEV_2302 IDEAL LOADS SUPPLY INLET,Air,1
 Node,122,THERMAL ZONE: ELEV_2302 RETURN OUTLET,Air,0
 Node,123,THERMAL ZONE: ELEV_2303 ZONE AIR NODE,Air,0
 Node,124,THERMAL ZONE: ELEV_2303 IDEAL LOADS SUPPLY INLET,Air,1
 Node,125,THERMAL ZONE: ELEV_2303 RETURN OUTLET,Air,0
 Node,126,THERMAL ZONE: ELEV_2304 ZONE AIR NODE,Air,0
 Node,127,THERMAL ZONE: ELEV_2304 IDEAL LOADS SUPPLY INLET,Air,1
 Node,128,THERMAL ZONE: ELEV_2304 RETURN OUTLET,Air,0
 Node,129,THERMAL ZONE: ELEV_P101 ZONE AIR NODE,Air,0
 Node,130,THERMAL ZONE: ELEV_P101 IDEAL LOADS SUPPLY INLET,Air,1
 Node,131,THERMAL ZONE: ELEV_P101 RETURN OUTLET,Air,0
 Node,132,THERMAL ZONE: ELEV_P102 ZONE AIR NODE,Air,0
 Node,133,THERMAL ZONE: ELEV_P102 IDEAL LOADS SUPPLY INLET,Air,1
 Node,134,THERMAL ZONE: ELEV_P102 RETURN OUTLET,Air,0
 Node,135,THERMAL ZONE: ELEV_P201 ZONE AIR NODE,Air,0
 Node,136,THERMAL ZONE: ELEV_P201 IDEAL LOADS SUPPLY INLET,Air,1
 Node,137,THERMAL ZONE: ELEV_P201 RETURN OUTLET,Air,0
 Node,138,THERMAL ZONE: ELEV_P202 ZONE AIR NODE,Air,0
 Node,139,THERMAL ZONE: ELEV_P202 IDEAL LOADS SUPPLY INLET,Air,1
 Node,140,THERMAL ZONE: ELEV_P202 RETURN OUTLET,Air,0
 Node,141,THERMAL ZONE: FCC_0100 ZONE AIR NODE,Air,0
 Node,142,THERMAL ZONE: FCC_0100 IDEAL LOADS SUPPLY INLET,Air,1
 Node,143,THERMAL ZONE: FCC_0100 RETURN OUTLET,Air,0
 Node,144,THERMAL ZONE: FITNESS_2200 ZONE AIR NODE,Air,0
 Node,145,THERMAL ZONE: FITNESS_2200 IDEAL LOADS SUPPLY INLET,Air,1
 Node,146,THERMAL ZONE: FITNESS_2200 RETURN OUTLET,Air,0
 Node,147,THERMAL ZONE: LEASING_0100 ZONE AIR NODE,Air,0
 Node,148,THERMAL ZONE: LEASING_0100 IDEAL LOADS SUPPLY INLET,Air,1
 Node,149,THERMAL ZONE: LEASING_0100 RETURN OUTLET,Air,0
 Node,150,THERMAL ZONE: LOBBY_MAIL_0100 ZONE AIR NODE,Air,0
 Node,151,THERMAL ZONE: LOBBY_MAIL_0100 IDEAL LOADS SUPPLY INLET,Air,1
 Node,152,THERMAL ZONE: LOBBY_MAIL_0100 RETURN OUTLET,Air,0
 Node,153,THERMAL ZONE: LOUNGE_2300 ZONE AIR NODE,Air,0
 Node,154,THERMAL ZONE: LOUNGE_2300 IDEAL LOADS SUPPLY INLET,Air,1
 Node,155,THERMAL ZONE: LOUNGE_2300 RETURN OUTLET,Air,0
 Node,156,THERMAL ZONE: LOUNGE_2301 ZONE AIR NODE,Air,0
 Node,157,THERMAL ZONE: LOUNGE_2301 IDEAL LOADS SUPPLY INLET,Air,1
 Node,158,THERMAL ZONE: LOUNGE_2301 RETURN OUTLET,Air,0
 Node,159,THERMAL ZONE: MECH_0200 ZONE AIR NODE,Air,0
 Node,160,THERMAL ZONE: MECH_0200 IDEAL LOADS SUPPLY INLET,Air,1
 Node,161,THERMAL ZONE: MECH_0200 RETURN OUTLET,Air,0
 Node,162,THERMAL ZONE: MECH_0300 ZONE AIR NODE,Air,0
 Node,163,THERMAL ZONE: MECH_0300 IDEAL LOADS SUPPLY INLET,Air,1
 Node,164,THERMAL ZONE: MECH_0300 RETURN OUTLET,Air,0
 Node,165,THERMAL ZONE: MECH_0400 ZONE AIR NODE,Air,0
 Node,166,THERMAL ZONE: MECH_0400 IDEAL LOADS SUPPLY INLET,Air,1
 Node,167,THERMAL ZONE: MECH_0400 RETURN OUTLET,Air,0
 Node,168,THERMAL ZONE: MECH_0500 ZONE AIR NODE,Air,0
 Node,169,THERMAL ZONE: MECH_0500 IDEAL LOADS SUPPLY INLET,Air,1
 Node,170,THERMAL ZONE: MECH_0500 RETURN OUTLET,Air,0
 Node,171,THERMAL ZONE: MECH_2100 ZONE AIR NODE,Air,0
 Node,172,THERMAL ZONE: MECH_2100 IDEAL LOADS SUPPLY INLET,Air,1
 Node,173,THERMAL ZONE: MECH_2100 RETURN OUTLET,Air,0
 Node,174,THERMAL ZONE: PACKAGE_0100 ZONE AIR NODE,Air,0
 Node,175,THERMAL ZONE: PACKAGE_0100 IDEAL LOADS SUPPLY INLET,Air,1
 Node,176,THERMAL ZONE: PACKAGE_0100 RETURN OUTLET,Air,0
 Node,177,THERMAL ZONE: RESTROOM_0100 ZONE AIR NODE,Air,0
 Node,178,THERMAL ZONE: RESTROOM_0100 IDEAL LOADS SUPPLY INLET,Air,1
 Node,179,THERMAL ZONE: RESTROOM_0100 RETURN OUTLET,Air,0
 Node,180,THERMAL ZONE: RESTROOM_2201 ZONE AIR NODE,Air,0
 Node,181,THERMAL ZONE: RESTROOM_2201 IDEAL LOADS SUPPLY INLET,Air,1
 Node,182,THERMAL ZONE: RESTROOM_2201 RETURN OUTLET,Air,0
 Node,183,THERMAL ZONE: RESTROOM_2300 ZONE AIR NODE,Air,0
 Node,184,THERMAL ZONE: RESTROOM_2300 IDEAL LOADS SUPPLY INLET,Air,1
 Node,185,THERMAL ZONE: RESTROOM_2300 RETURN OUTLET,Air,0
 Node,186,THERMAL ZONE: RETAIL STORAGE_0100 ZONE AIR NODE,Air,0
 Node,187,THERMAL ZONE: RETAIL STORAGE_0100 IDEAL LOADS SUPPLY INLET,Air,1
 Node,188,THERMAL ZONE: RETAIL STORAGE_0100 RETURN OUTLET,Air,0
 Node,189,THERMAL ZONE: RETAIL_0100 ZONE AIR NODE,Air,0
 Node,190,THERMAL ZONE: RETAIL_0100 IDEAL LOADS SUPPLY INLET,Air,1
 Node,191,THERMAL ZONE: RETAIL_0100 RETURN OUTLET,Air,0
 Node,192,THERMAL ZONE: STAIR_0101 ZONE AIR NODE,Air,0
 Node,193,THERMAL ZONE: STAIR_0101 IDEAL LOADS SUPPLY INLET,Air,1
 Node,194,THERMAL ZONE: STAIR_0101 RETURN OUTLET,Air,0
 Node,195,THERMAL ZONE: STAIR_0102 ZONE AIR NODE,Air,0
 Node,196,THERMAL ZONE: STAIR_0102 IDEAL LOADS SUPPLY INLET,Air,1
 Node,197,THERMAL ZONE: STAIR_0102 RETURN OUTLET,Air,0
 Node,198,THERMAL ZONE: STAIR_0201 ZONE AIR NODE,Air,0
 Node,199,THERMAL ZONE: STAIR_0201 IDEAL LOADS SUPPLY INLET,Air,1
 Node,200,THERMAL ZONE: STAIR_0201 RETURN OUTLET,Air,0
 Node,201,THERMAL ZONE: STAIR_0202 ZONE AIR NODE,Air,0
 Node,202,THERMAL ZONE: STAIR_0202 IDEAL LOADS SUPPLY INLET,Air,1
 Node,203,THERMAL ZONE: STAIR_0202 RETURN OUTLET,Air,0
 Node,204,THERMAL ZONE: STAIR_0301 ZONE AIR NODE,Air,0
 Node,205,THERMAL ZONE: STAIR_0301 IDEAL LOADS SUPPLY INLET,Air,1
 Node,206,THERMAL ZONE: STAIR_0301 RETURN OUTLET,Air,0
 Node,207,THERMAL ZONE: STAIR_0302 ZONE AIR NODE,Air,0
 Node,208,THERMAL ZONE: STAIR_0302 IDEAL LOADS SUPPLY INLET,Air,1
 Node,209,THERMAL ZONE: STAIR_0302 RETURN OUTLET,Air,0
 Node,210,THERMAL ZONE: STAIR_0401 ZONE AIR NODE,Air,0
 Node,211,THERMAL ZONE: STAIR_0401 IDEAL LOADS SUPPLY INLET,Air,1
 Node,212,THERMAL ZONE: STAIR_0401 RETURN OUTLET,Air,0
 Node,213,THERMAL ZONE: STAIR_0402 ZONE AIR NODE,Air,0
 Node,214,THERMAL ZONE: STAIR_0402 IDEAL LOADS SUPPLY INLET,Air,1
 Node,215,THERMAL ZONE: STAIR_0402 RETURN OUTLET,Air,0
 Node,216,THERMAL ZONE: STAIR_0501 ZONE AIR NODE,Air,0
 Node,217,THERMAL ZONE: STAIR_0501 IDEAL LOADS SUPPLY INLET,Air,1
 Node,218,THERMAL ZONE: STAIR_0501 RETURN OUTLET,Air,0
 Node,219,THERMAL ZONE: STAIR_0502 ZONE AIR NODE,Air,0
 Node,220,THERMAL ZONE: STAIR_0502 IDEAL LOADS SUPPLY INLET,Air,1
 Node,221,THERMAL ZONE: STAIR_0502 RETURN OUTLET,Air,0
 Node,222,THERMAL ZONE: STAIR_2101 ZONE AIR NODE,Air,0
 Node,223,THERMAL ZONE: STAIR_2101 IDEAL LOADS SUPPLY INLET,Air,1
 Node,224,THERMAL ZONE: STAIR_2101 RETURN OUTLET,Air,0
 Node,225,THERMAL ZONE: STAIR_2102 ZONE AIR NODE,Air,0
 Node,226,THERMAL ZONE: STAIR_2102 IDEAL LOADS SUPPLY INLET,Air,1
 Node,227,THERMAL ZONE: STAIR_2102 RETURN OUTLET,Air,0
 Node,228,THERMAL ZONE: STAIR_2201 ZONE AIR NODE,Air,0
 Node,229,THERMAL ZONE: STAIR_2201 IDEAL LOADS SUPPLY INLET,Air,1
 Node,230,THERMAL ZONE: STAIR_2201 RETURN OUTLET,Air,0
 Node,231,THERMAL ZONE: STAIR_2202 ZONE AIR NODE,Air,0
 Node,232,THERMAL ZONE: STAIR_2202 IDEAL LOADS SUPPLY INLET,Air,1
 Node,233,THERMAL ZONE: STAIR_2202 RETURN OUTLET,Air,0
 Node,234,THERMAL ZONE: STAIR_2301 ZONE AIR NODE,Air,0
 Node,235,THERMAL ZONE: STAIR_2301 IDEAL LOADS SUPPLY INLET,Air,1
 Node,236,THERMAL ZONE: STAIR_2301 RETURN OUTLET,Air,0
 Node,237,THERMAL ZONE: STAIR_2302 ZONE AIR NODE,Air,0
 Node,238,THERMAL ZONE: STAIR_2302 IDEAL LOADS SUPPLY INLET,Air,1
 Node,239,THERMAL ZONE: STAIR_2302 RETURN OUTLET,Air,0
 Node,240,THERMAL ZONE: STAIR_P101 ZONE AIR NODE,Air,0
 Node,241,THERMAL ZONE: STAIR_P101 IDEAL LOADS SUPPLY INLET,Air,1
 Node,242,THERMAL ZONE: STAIR_P101 RETURN OUTLET,Air,0
 Node,243,THERMAL ZONE: STAIR_P102 ZONE AIR NODE,Air,0
 Node,244,THERMAL ZONE: STAIR_P102 IDEAL LOADS SUPPLY INLET,Air,1
 Node,245,THERMAL ZONE: STAIR_P102 RETURN OUTLET,Air,0
 Node,246,THERMAL ZONE: STAIR_P201 ZONE AIR NODE,Air,0
 Node,247,THERMAL ZONE: STAIR_P201 IDEAL LOADS SUPPLY INLET,Air,1
 Node,248,THERMAL ZONE: STAIR_P201 RETURN OUTLET,Air,0
 Node,249,THERMAL ZONE: STAIR_P202 ZONE AIR NODE,Air,0
 Node,250,THERMAL ZONE: STAIR_P202 IDEAL LOADS SUPPLY INLET,Air,1
 Node,251,THERMAL ZONE: STAIR_P202 RETURN OUTLET,Air,0
 Node,252,THERMAL ZONE: STOR_0100 ZONE AIR NODE,Air,0
 Node,253,THERMAL ZONE: STOR_0100 IDEAL LOADS SUPPLY INLET,Air,1
 Node,254,THERMAL ZONE: STOR_0100 RETURN OUTLET,Air,0
 Node,255,THERMAL ZONE: STOR_0200 ZONE AIR NODE,Air,0
 Node,256,THERMAL ZONE: STOR_0200 IDEAL LOADS SUPPLY INLET,Air,1
 Node,257,THERMAL ZONE: STOR_0200 RETURN OUTLET,Air,0
 Node,258,THERMAL ZONE: STOR_0300 ZONE AIR NODE,Air,0
 Node,259,THERMAL ZONE: STOR_0300 IDEAL LOADS SUPPLY INLET,Air,1
 Node,260,THERMAL ZONE: STOR_0300 RETURN OUTLET,Air,0
 Node,261,THERMAL ZONE: STOR_0400 ZONE AIR NODE,Air,0
 Node,262,THERMAL ZONE: STOR_0400 IDEAL LOADS SUPPLY INLET,Air,1
 Node,263,THERMAL ZONE: STOR_0400 RETURN OUTLET,Air,0
 Node,264,THERMAL ZONE: STOR_0500 ZONE AIR NODE,Air,0
 Node,265,THERMAL ZONE: STOR_0500 IDEAL LOADS SUPPLY INLET,Air,1
 Node,266,THERMAL ZONE: STOR_0500 RETURN OUTLET,Air,0
 Node,267,THERMAL ZONE: STOR_2100 ZONE AIR NODE,Air,0
 Node,268,THERMAL ZONE: STOR_2100 IDEAL LOADS SUPPLY INLET,Air,1
 Node,269,THERMAL ZONE: STOR_2100 RETURN OUTLET,Air,0
 Node,270,THERMAL ZONE: STOR_P100 ZONE AIR NODE,Air,0
 Node,271,THERMAL ZONE: STOR_P100 IDEAL LOADS SUPPLY INLET,Air,1
 Node,272,THERMAL ZONE: STOR_P100 RETURN OUTLET,Air,0
 Node,273,THERMAL ZONE: STOR_P200 ZONE AIR NODE,Air,0
 Node,274,THERMAL ZONE: STOR_P200 IDEAL LOADS SUPPLY INLET,Air,1
 Node,275,THERMAL ZONE: STOR_P200 RETURN OUTLET,Air,0
 Node,276,THERMAL ZONE: TRASH_0200 ZONE AIR NODE,Air,0
 Node,277,THERMAL ZONE: TRASH_0200 IDEAL LOADS SUPPLY INLET,Air,1
 Node,278,THERMAL ZONE: TRASH_0200 RETURN OUTLET,Air,0
 Node,279,THERMAL ZONE: TRASH_0300 ZONE AIR NODE,Air,0
 Node,280,THERMAL ZONE: TRASH_0300 IDEAL LOADS SUPPLY INLET,Air,1
 Node,281,THERMAL ZONE: TRASH_0300 RETURN OUTLET,Air,0
 Node,282,THERMAL ZONE: TRASH_0400 ZONE AIR NODE,Air,0
 Node,283,THERMAL ZONE: TRASH_0400 IDEAL LOADS SUPPLY INLET,Air,1
 Node,284,THERMAL ZONE: TRASH_0400 RETURN OUTLET,Air,0
 Node,285,THERMAL ZONE: TRASH_0500 ZONE AIR NODE,Air,0
 Node,286,THERMAL ZONE: TRASH_0500 IDEAL LOADS SUPPLY INLET,Air,1
 Node,287,THERMAL ZONE: TRASH_0500 RETURN OUTLET,Air,0
 Node,288,THERMAL ZONE: TRASH_2100 ZONE AIR NODE,Air,0
 Node,289,THERMAL ZONE: TRASH_2100 IDEAL LOADS SUPPLY INLET,Air,1
 Node,290,THERMAL ZONE: TRASH_2100 RETURN OUTLET,Air,0
 Node,291,THERMAL ZONE: TRASH_2200 ZONE AIR NODE,Air,0
 Node,292,THERMAL ZONE: TRASH_2200 IDEAL LOADS SUPPLY INLET,Air,1
 Node,293,THERMAL ZONE: TRASH_2200 RETURN OUTLET,Air,0
 Node,294,THERMAL ZONE: UNIT_0201_4B ZONE AIR NODE,Air,0
 Node,295,THERMAL ZONE: UNIT_0201_4B IDEAL LOADS SUPPLY INLET,Air,1
 Node,296,THERMAL ZONE: UNIT_0201_4B RETURN OUTLET,Air,0
 Node,297,THERMAL ZONE: UNIT_0202 ZONE AIR NODE,Air,0
 Node,298,THERMAL ZONE: UNIT_0202 IDEAL LOADS SUPPLY INLET,Air,1
 Node,299,THERMAL ZONE: UNIT_0202 RETURN OUTLET,Air,0
 Node,300,THERMAL ZONE: UNIT_0203 ZONE AIR NODE,Air,0
 Node,301,THERMAL ZONE: UNIT_0203 IDEAL LOADS SUPPLY INLET,Air,1
 Node,302,THERMAL ZONE: UNIT_0203 RETURN OUTLET,Air,0
 Node,303,THERMAL ZONE: UNIT_0204 ZONE AIR NODE,Air,0
 Node,304,THERMAL ZONE: UNIT_0204 IDEAL LOADS SUPPLY INLET,Air,1
 Node,305,THERMAL ZONE: UNIT_0204 RETURN OUTLET,Air,0
 Node,306,THERMAL ZONE: UNIT_0205 ZONE AIR NODE,Air,0
 Node,307,THERMAL ZONE: UNIT_0205 IDEAL LOADS SUPPLY INLET,Air,1
 Node,308,THERMAL ZONE: UNIT_0205 RETURN OUTLET,Air,0
 Node,309,THERMAL ZONE: UNIT_0206 ZONE AIR NODE,Air,0
 Node,310,THERMAL ZONE: UNIT_0206 IDEAL LOADS SUPPLY INLET,Air,1
 Node,311,THERMAL ZONE: UNIT_0206 RETURN OUTLET,Air,0
 Node,312,THERMAL ZONE: UNIT_0207 ZONE AIR NODE,Air,0
 Node,313,THERMAL ZONE: UNIT_0207 IDEAL LOADS SUPPLY INLET,Air,1
 Node,314,THERMAL ZONE: UNIT_0207 RETURN OUTLET,Air,0
 Node,315,THERMAL ZONE: UNIT_0208 ZONE AIR NODE,Air,0
 Node,316,THERMAL ZONE: UNIT_0208 IDEAL LOADS SUPPLY INLET,Air,1
 Node,317,THERMAL ZONE: UNIT_0208 RETURN OUTLET,Air,0
 Node,318,THERMAL ZONE: UNIT_0209_3B ZONE AIR NODE,Air,0
 Node,319,THERMAL ZONE: UNIT_0209_3B IDEAL LOADS SUPPLY INLET,Air,1
 Node,320,THERMAL ZONE: UNIT_0209_3B RETURN OUTLET,Air,0
 Node,321,THERMAL ZONE: UNIT_0210 ZONE AIR NODE,Air,0
 Node,322,THERMAL ZONE: UNIT_0210 IDEAL LOADS SUPPLY INLET,Air,1
 Node,323,THERMAL ZONE: UNIT_0210 RETURN OUTLET,Air,0
 Node,324,THERMAL ZONE: UNIT_0211_2B ZONE AIR NODE,Air,0
 Node,325,THERMAL ZONE: UNIT_0211_2B IDEAL LOADS SUPPLY INLET,Air,1
 Node,326,THERMAL ZONE: UNIT_0211_2B RETURN OUTLET,Air,0
 Node,327,THERMAL ZONE: UNIT_0212 ZONE AIR NODE,Air,0
 Node,328,THERMAL ZONE: UNIT_0212 IDEAL LOADS SUPPLY INLET,Air,1
 Node,329,THERMAL ZONE: UNIT_0212 RETURN OUTLET,Air,0
 Node,330,THERMAL ZONE: UNIT_0213 ZONE AIR NODE,Air,0
 Node,331,THERMAL ZONE: UNIT_0213 IDEAL LOADS SUPPLY INLET,Air,1
 Node,332,THERMAL ZONE: UNIT_0213 RETURN OUTLET,Air,0
 Node,333,THERMAL ZONE: UNIT_0214 ZONE AIR NODE,Air,0
 Node,334,THERMAL ZONE: UNIT_0214 IDEAL LOADS SUPPLY INLET,Air,1
 Node,335,THERMAL ZONE: UNIT_0214 RETURN OUTLET,Air,0
 Node,336,THERMAL ZONE: UNIT_0215 ZONE AIR NODE,Air,0
 Node,337,THERMAL ZONE: UNIT_0215 IDEAL LOADS SUPPLY INLET,Air,1
 Node,338,THERMAL ZONE: UNIT_0215 RETURN OUTLET,Air,0
 Node,339,THERMAL ZONE: UNIT_0216 ZONE AIR NODE,Air,0
 Node,340,THERMAL ZONE: UNIT_0216 IDEAL LOADS SUPPLY INLET,Air,1
 Node,341,THERMAL ZONE: UNIT_0216 RETURN OUTLET,Air,0
 Node,342,THERMAL ZONE: UNIT_0217 ZONE AIR NODE,Air,0
 Node,343,THERMAL ZONE: UNIT_0217 IDEAL LOADS SUPPLY INLET,Air,1
 Node,344,THERMAL ZONE: UNIT_0217 RETURN OUTLET,Air,0
 Node,345,THERMAL ZONE: UNIT_0218 ZONE AIR NODE,Air,0
 Node,346,THERMAL ZONE: UNIT_0218 IDEAL LOADS SUPPLY INLET,Air,1
 Node,347,THERMAL ZONE: UNIT_0218 RETURN OUTLET,Air,0
 Node,348,THERMAL ZONE: UNIT_0219_4B ZONE AIR NODE,Air,0
 Node,349,THERMAL ZONE: UNIT_0219_4B IDEAL LOADS SUPPLY INLET,Air,1
 Node,350,THERMAL ZONE: UNIT_0219_4B RETURN OUTLET,Air,0
 Node,351,THERMAL ZONE: UNIT_0301_4B ZONE AIR NODE,Air,0
 Node,352,THERMAL ZONE: UNIT_0301_4B IDEAL LOADS SUPPLY INLET,Air,1
 Node,353,THERMAL ZONE: UNIT_0301_4B RETURN OUTLET,Air,0
 Node,354,THERMAL ZONE: UNIT_0302 ZONE AIR NODE,Air,0
 Node,355,THERMAL ZONE: UNIT_0302 IDEAL LOADS SUPPLY INLET,Air,1
 Node,356,THERMAL ZONE: UNIT_0302 RETURN OUTLET,Air,0
 Node,357,THERMAL ZONE: UNIT_0303 ZONE AIR NODE,Air,0
 Node,358,THERMAL ZONE: UNIT_0303 IDEAL LOADS SUPPLY INLET,Air,1
 Node,359,THERMAL ZONE: UNIT_0303 RETURN OUTLET,Air,0
 Node,360,THERMAL ZONE: UNIT_0304 ZONE AIR NODE,Air,0
 Node,361,THERMAL ZONE: UNIT_0304 IDEAL LOADS SUPPLY INLET,Air,1
 Node,362,THERMAL ZONE: UNIT_0304 RETURN OUTLET,Air,0
 Node,363,THERMAL ZONE: UNIT_0305 ZONE AIR NODE,Air,0
 Node,364,THERMAL ZONE: UNIT_0305 IDEAL LOADS SUPPLY INLET,Air,1
 Node,365,THERMAL ZONE: UNIT_0305 RETURN OUTLET,Air,0
 Node,366,THERMAL ZONE: UNIT_0306 ZONE AIR NODE,Air,0
 Node,367,THERMAL ZONE: UNIT_0306 IDEAL LOADS SUPPLY INLET,Air,1
 Node,368,THERMAL ZONE: UNIT_0306 RETURN OUTLET,Air,0
 Node,369,THERMAL ZONE: UNIT_0307_3B ZONE AIR NODE,Air,0
 Node,370,THERMAL ZONE: UNIT_0307_3B IDEAL LOADS SUPPLY INLET,Air,1
 Node,371,THERMAL ZONE: UNIT_0307_3B RETURN OUTLET,Air,0
 Node,372,THERMAL ZONE: UNIT_0308 ZONE AIR NODE,Air,0
 Node,373,THERMAL ZONE: UNIT_0308 IDEAL LOADS SUPPLY INLET,Air,1
 Node,374,THERMAL ZONE: UNIT_0308 RETURN OUTLET,Air,0
 Node,375,THERMAL ZONE: UNIT_0309_2B ZONE AIR NODE,Air,0
 Node,376,THERMAL ZONE: UNIT_0309_2B IDEAL LOADS SUPPLY INLET,Air,1
 Node,377,THERMAL ZONE: UNIT_0309_2B RETURN OUTLET,Air,0
 Node,378,THERMAL ZONE: UNIT_0310 ZONE AIR NODE,Air,0
 Node,379,THERMAL ZONE: UNIT_0310 IDEAL LOADS SUPPLY INLET,Air,1
 Node,380,THERMAL ZONE: UNIT_0310 RETURN OUTLET,Air,0
 Node,381,THERMAL ZONE: UNIT_0311 ZONE AIR NODE,Air,0
 Node,382,THERMAL ZONE: UNIT_0311 IDEAL LOADS SUPPLY INLET,Air,1
 Node,383,THERMAL ZONE: UNIT_0311 RETURN OUTLET,Air,0
 Node,384,THERMAL ZONE: UNIT_0312 ZONE AIR NODE,Air,0
 Node,385,THERMAL ZONE: UNIT_0312 IDEAL LOADS SUPPLY INLET,Air,1
 Node,386,THERMAL ZONE: UNIT_0312 RETURN OUTLET,Air,0
 Node,387,THERMAL ZONE: UNIT_0313 ZONE AIR NODE,Air,0
 Node,388,THERMAL ZONE: UNIT_0313 IDEAL LOADS SUPPLY INLET,Air,1
 Node,389,THERMAL ZONE: UNIT_0313 RETURN OUTLET,Air,0
 Node,390,THERMAL ZONE: UNIT_0314 ZONE AIR NODE,Air,0
 Node,391,THERMAL ZONE: UNIT_0314 IDEAL LOADS SUPPLY INLET,Air,1
 Node,392,THERMAL ZONE: UNIT_0314 RETURN OUTLET,Air,0
 Node,393,THERMAL ZONE: UNIT_0315 ZONE AIR NODE,Air,0
 Node,394,THERMAL ZONE: UNIT_0315 IDEAL LOADS SUPPLY INLET,Air,1
 Node,395,THERMAL ZONE: UNIT_0315 RETURN OUTLET,Air,0
 Node,396,THERMAL ZONE: UNIT_0316 ZONE AIR NODE,Air,0
 Node,397,THERMAL ZONE: UNIT_0316 IDEAL LOADS SUPPLY INLET,Air,1
 Node,398,THERMAL ZONE: UNIT_0316 RETURN OUTLET,Air,0
 Node,399,THERMAL ZONE: UNIT_0317_4B ZONE AIR NODE,Air,0
 Node,400,THERMAL ZONE: UNIT_0317_4B IDEAL LOADS SUPPLY INLET,Air,1
 Node,401,THERMAL ZONE: UNIT_0317_4B RETURN OUTLET,Air,0
 Node,402,THERMAL ZONE: UNIT_0401_4B ZONE AIR NODE,Air,0
 Node,403,THERMAL ZONE: UNIT_0401_4B IDEAL LOADS SUPPLY INLET,Air,1
 Node,404,THERMAL ZONE: UNIT_0401_4B RETURN OUTLET,Air,0
 Node,405,THERMAL ZONE: UNIT_0402 ZONE AIR NODE,Air,0
 Node,406,THERMAL ZONE: UNIT_0402 IDEAL LOADS SUPPLY INLET,Air,1
 Node,407,THERMAL ZONE: UNIT_0402 RETURN OUTLET,Air,0
 Node,408,THERMAL ZONE: UNIT_0403 ZONE AIR NODE,Air,0
 Node,409,THERMAL ZONE: UNIT_0403 IDEAL LOADS SUPPLY INLET,Air,1
 Node,410,THERMAL ZONE: UNIT_0403 RETURN OUTLET,Air,0
 Node,411,THERMAL ZONE: UNIT_0404 ZONE AIR NODE,Air,0
 Node,412,THERMAL ZONE: UNIT_0404 IDEAL LOADS SUPPLY INLET,Air,1
 Node,413,THERMAL ZONE: UNIT_0404 RETURN OUTLET,Air,0
 Node,414,THERMAL ZONE: UNIT_0405 ZONE AIR NODE,Air,0
 Node,415,THERMAL ZONE: UNIT_0405 IDEAL LOADS SUPPLY INLET,Air,1
 Node,416,THERMAL ZONE: UNIT_0405 RETURN OUTLET,Air,0
 Node,417,THERMAL ZONE: UNIT_0406 ZONE AIR NODE,Air,0
 Node,418,THERMAL ZONE: UNIT_0406 IDEAL LOADS SUPPLY INLET,Air,1
 Node,419,THERMAL ZONE: UNIT_0406 RETURN OUTLET,Air,0
 Node,420,THERMAL ZONE: UNIT_0407_3B ZONE AIR NODE,Air,0
 Node,421,THERMAL ZONE: UNIT_0407_3B IDEAL LOADS SUPPLY INLET,Air,1
 Node,422,THERMAL ZONE: UNIT_0407_3B RETURN OUTLET,Air,0
 Node,423,THERMAL ZONE: UNIT_0408 ZONE AIR NODE,Air,0
 Node,424,THERMAL ZONE: UNIT_0408 IDEAL LOADS SUPPLY INLET,Air,1
 Node,425,THERMAL ZONE: UNIT_0408 RETURN OUTLET,Air,0
 Node,426,THERMAL ZONE: UNIT_0409_2B ZONE AIR NODE,Air,0
 Node,427,THERMAL ZONE: UNIT_0409_2B IDEAL LOADS SUPPLY INLET,Air,1
 Node,428,THERMAL ZONE: UNIT_0409_2B RETURN OUTLET,Air,0
 Node,429,THERMAL ZONE: UNIT_0410 ZONE AIR NODE,Air,0
 Node,430,THERMAL ZONE: UNIT_0410 IDEAL LOADS SUPPLY INLET,Air,1
 Node,431,THERMAL ZONE: UNIT_0410 RETURN OUTLET,Air,0
 Node,432,THERMAL ZONE: UNIT_0411 ZONE AIR NODE,Air,0
 Node,433,THERMAL ZONE: UNIT_0411 IDEAL LOADS SUPPLY INLET,Air,1
 Node,434,THERMAL ZONE: UNIT_0411 RETURN OUTLET,Air,0
 Node,435,THERMAL ZONE: UNIT_0412 ZONE AIR NODE,Air,0
 Node,436,THERMAL ZONE: UNIT_0412 IDEAL LOADS SUPPLY INLET,Air,1
 Node,437,THERMAL ZONE: UNIT_0412 RETURN OUTLET,Air,0
 Node,438,THERMAL ZONE: UNIT_0413 ZONE AIR NODE,Air,0
 Node,439,THERMAL ZONE: UNIT_0413 IDEAL LOADS SUPPLY INLET,Air,1
 Node,440,THERMAL ZONE: UNIT_0413 RETURN OUTLET,Air,0
 Node,441,THERMAL ZONE: UNIT_0414 ZONE AIR NODE,Air,0
 Node,442,THERMAL ZONE: UNIT_0414 IDEAL LOADS SUPPLY INLET,Air,1
 Node,443,THERMAL ZONE: UNIT_0414 RETURN OUTLET,Air,0
 Node,444,THERMAL ZONE: UNIT_0415 ZONE AIR NODE,Air,0
 Node,445,THERMAL ZONE: UNIT_0415 IDEAL LOADS SUPPLY INLET,Air,1
 Node,446,THERMAL ZONE: UNIT_0415 RETURN OUTLET,Air,0
 Node,447,THERMAL ZONE: UNIT_0416 ZONE AIR NODE,Air,0
 Node,448,THERMAL ZONE: UNIT_0416 IDEAL LOADS SUPPLY INLET,Air,1
 Node,449,THERMAL ZONE: UNIT_0416 RETURN OUTLET,Air,0
 Node,450,THERMAL ZONE: UNIT_0417_4B ZONE AIR NODE,Air,0
 Node,451,THERMAL ZONE: UNIT_0417_4B IDEAL LOADS SUPPLY INLET,Air,1
 Node,452,THERMAL ZONE: UNIT_0417_4B RETURN OUTLET,Air,0
 Node,453,THERMAL ZONE: UNIT_0501_4B ZONE AIR NODE,Air,0
 Node,454,THERMAL ZONE: UNIT_0501_4B IDEAL LOADS SUPPLY INLET,Air,1
 Node,455,THERMAL ZONE: UNIT_0501_4B RETURN OUTLET,Air,0
 Node,456,THERMAL ZONE: UNIT_0502 ZONE AIR NODE,Air,0
 Node,457,THERMAL ZONE: UNIT_0502 IDEAL LOADS SUPPLY INLET,Air,1
 Node,458,THERMAL ZONE: UNIT_0502 RETURN OUTLET,Air,0
 Node,459,THERMAL ZONE: UNIT_0503 ZONE AIR NODE,Air,0
 Node,460,THERMAL ZONE: UNIT_0503 IDEAL LOADS SUPPLY INLET,Air,1
 Node,461,THERMAL ZONE: UNIT_0503 RETURN OUTLET,Air,0
 Node,462,THERMAL ZONE: UNIT_0504 ZONE AIR NODE,Air,0
 Node,463,THERMAL ZONE: UNIT_0504 IDEAL LOADS SUPPLY INLET,Air,1
 Node,464,THERMAL ZONE: UNIT_0504 RETURN OUTLET,Air,0
 Node,465,THERMAL ZONE: UNIT_0505 ZONE AIR NODE,Air,0
 Node,466,THERMAL ZONE: UNIT_0505 IDEAL LOADS SUPPLY INLET,Air,1
 Node,467,THERMAL ZONE: UNIT_0505 RETURN OUTLET,Air,0
 Node,468,THERMAL ZONE: UNIT_0506 ZONE AIR NODE,Air,0
 Node,469,THERMAL ZONE: UNIT_0506 IDEAL LOADS SUPPLY INLET,Air,1
 Node,470,THERMAL ZONE: UNIT_0506 RETURN OUTLET,Air,0
 Node,471,THERMAL ZONE: UNIT_0507_3B ZONE AIR NODE,Air,0
 Node,472,THERMAL ZONE: UNIT_0507_3B IDEAL LOADS SUPPLY INLET,Air,1
 Node,473,THERMAL ZONE: UNIT_0507_3B RETURN OUTLET,Air,0
 Node,474,THERMAL ZONE: UNIT_0508 ZONE AIR NODE,Air,0
 Node,475,THERMAL ZONE: UNIT_0508 IDEAL LOADS SUPPLY INLET,Air,1
 Node,476,THERMAL ZONE: UNIT_0508 RETURN OUTLET,Air,0
 Node,477,THERMAL ZONE: UNIT_0509_2B ZONE AIR NODE,Air,0
 Node,478,THERMAL ZONE: UNIT_0509_2B IDEAL LOADS SUPPLY INLET,Air,1
 Node,479,THERMAL ZONE: UNIT_0509_2B RETURN OUTLET,Air,0
 Node,480,THERMAL ZONE: UNIT_0510 ZONE AIR NODE,Air,0
 Node,481,THERMAL ZONE: UNIT_0510 IDEAL LOADS SUPPLY INLET,Air,1
 Node,482,THERMAL ZONE: UNIT_0510 RETURN OUTLET,Air,0
 Node,483,THERMAL ZONE: UNIT_0511 ZONE AIR NODE,Air,0
 Node,484,THERMAL ZONE: UNIT_0511 IDEAL LOADS SUPPLY INLET,Air,1
 Node,485,THERMAL ZONE: UNIT_0511 RETURN OUTLET,Air,0
 Node,486,THERMAL ZONE: UNIT_0512 ZONE AIR NODE,Air,0
 Node,487,THERMAL ZONE: UNIT_0512 IDEAL LOADS SUPPLY INLET,Air,1
 Node,488,THERMAL ZONE: UNIT_0512 RETURN OUTLET,Air,0
 Node,489,THERMAL ZONE: UNIT_0513 ZONE AIR NODE,Air,0
 Node,490,THERMAL ZONE: UNIT_0513 IDEAL LOADS SUPPLY INLET,Air,1
 Node,491,THERMAL ZONE: UNIT_0513 RETURN OUTLET,Air,0
 Node,492,THERMAL ZONE: UNIT_0514 ZONE AIR NODE,Air,0
 Node,493,THERMAL ZONE: UNIT_0514 IDEAL LOADS SUPPLY INLET,Air,1
 Node,494,THERMAL ZONE: UNIT_0514 RETURN OUTLET,Air,0
 Node,495,THERMAL ZONE: UNIT_0515 ZONE AIR NODE,Air,0
 Node,496,THERMAL ZONE: UNIT_0515 IDEAL LOADS SUPPLY INLET,Air,1
 Node,497,THERMAL ZONE: UNIT_0515 RETURN OUTLET,Air,0
 Node,498,THERMAL ZONE: UNIT_0516 ZONE AIR NODE,Air,0
 Node,499,THERMAL ZONE: UNIT_0516 IDEAL LOADS SUPPLY INLET,Air,1
 Node,500,THERMAL ZONE: UNIT_0516 RETURN OUTLET,Air,0
 Node,501,THERMAL ZONE: UNIT_0517_4B ZONE AIR NODE,Air,0
 Node,502,THERMAL ZONE: UNIT_0517_4B IDEAL LOADS SUPPLY INLET,Air,1
 Node,503,THERMAL ZONE: UNIT_0517_4B RETURN OUTLET,Air,0
 Node,504,THERMAL ZONE: UNIT_2101_4B ZONE AIR NODE,Air,0
 Node,505,THERMAL ZONE: UNIT_2101_4B IDEAL LOADS SUPPLY INLET,Air,1
 Node,506,THERMAL ZONE: UNIT_2101_4B RETURN OUTLET,Air,0
 Node,507,THERMAL ZONE: UNIT_2102 ZONE AIR NODE,Air,0
 Node,508,THERMAL ZONE: UNIT_2102 IDEAL LOADS SUPPLY INLET,Air,1
 Node,509,THERMAL ZONE: UNIT_2102 RETURN OUTLET,Air,0
 Node,510,THERMAL ZONE: UNIT_2103 ZONE AIR NODE,Air,0
 Node,511,THERMAL ZONE: UNIT_2103 IDEAL LOADS SUPPLY INLET,Air,1
 Node,512,THERMAL ZONE: UNIT_2103 RETURN OUTLET,Air,0
 Node,513,THERMAL ZONE: UNIT_2104 ZONE AIR NODE,Air,0
 Node,514,THERMAL ZONE: UNIT_2104 IDEAL LOADS SUPPLY INLET,Air,1
 Node,515,THERMAL ZONE: UNIT_2104 RETURN OUTLET,Air,0
 Node,516,THERMAL ZONE: UNIT_2105 ZONE AIR NODE,Air,0
 Node,517,THERMAL ZONE: UNIT_2105 IDEAL LOADS SUPPLY INLET,Air,1
 Node,518,THERMAL ZONE: UNIT_2105 RETURN OUTLET,Air,0
 Node,519,THERMAL ZONE: UNIT_2106 ZONE AIR NODE,Air,0
 Node,520,THERMAL ZONE: UNIT_2106 IDEAL LOADS SUPPLY INLET,Air,1
 Node,521,THERMAL ZONE: UNIT_2106 RETURN OUTLET,Air,0
 Node,522,THERMAL ZONE: UNIT_2107_3B ZONE AIR NODE,Air,0
 Node,523,THERMAL ZONE: UNIT_2107_3B IDEAL LOADS SUPPLY INLET,Air,1
 Node,524,THERMAL ZONE: UNIT_2107_3B RETURN OUTLET,Air,0
 Node,525,THERMAL ZONE: UNIT_2108 ZONE AIR NODE,Air,0
 Node,526,THERMAL ZONE: UNIT_2108 IDEAL LOADS SUPPLY INLET,Air,1
 Node,527,THERMAL ZONE: UNIT_2108 RETURN OUTLET,Air,0
 Node,528,THERMAL ZONE: UNIT_2109_2B ZONE AIR NODE,Air,0
 Node,529,THERMAL ZONE: UNIT_2109_2B IDEAL LOADS SUPPLY INLET,Air,1
 Node,530,THERMAL ZONE: UNIT_2109_2B RETURN OUTLET,Air,0
 Node,531,THERMAL ZONE: UNIT_2110 ZONE AIR NODE,Air,0
 Node,532,THERMAL ZONE: UNIT_2110 IDEAL LOADS SUPPLY INLET,Air,1
 Node,533,THERMAL ZONE: UNIT_2110 RETURN OUTLET,Air,0
 Node,534,THERMAL ZONE: UNIT_2111 ZONE AIR NODE,Air,0
 Node,535,THERMAL ZONE: UNIT_2111 IDEAL LOADS SUPPLY INLET,Air,1
 Node,536,THERMAL ZONE: UNIT_2111 RETURN OUTLET,Air,0
 Node,537,THERMAL ZONE: UNIT_2112 ZONE AIR NODE,Air,0
 Node,538,THERMAL ZONE: UNIT_2112 IDEAL LOADS SUPPLY INLET,Air,1
 Node,539,THERMAL ZONE: UNIT_2112 RETURN OUTLET,Air,0
 Node,540,THERMAL ZONE: UNIT_2113 ZONE AIR NODE,Air,0
 Node,541,THERMAL ZONE: UNIT_2113 IDEAL LOADS SUPPLY INLET,Air,1
 Node,542,THERMAL ZONE: UNIT_2113 RETURN OUTLET,Air,0
 Node,543,THERMAL ZONE: UNIT_2114 ZONE AIR NODE,Air,0
 Node,544,THERMAL ZONE: UNIT_2114 IDEAL LOADS SUPPLY INLET,Air,1
 Node,545,THERMAL ZONE: UNIT_2114 RETURN OUTLET,Air,0
 Node,546,THERMAL ZONE: UNIT_2115 ZONE AIR NODE,Air,0
 Node,547,THERMAL ZONE: UNIT_2115 IDEAL LOADS SUPPLY INLET,Air,1
 Node,548,THERMAL ZONE: UNIT_2115 RETURN OUTLET,Air,0
 Node,549,THERMAL ZONE: UNIT_2116 ZONE AIR NODE,Air,0
 Node,550,THERMAL ZONE: UNIT_2116 IDEAL LOADS SUPPLY INLET,Air,1
 Node,551,THERMAL ZONE: UNIT_2116 RETURN OUTLET,Air,0
 Node,552,THERMAL ZONE: UNIT_2117_4B ZONE AIR NODE,Air,0
 Node,553,THERMAL ZONE: UNIT_2117_4B IDEAL LOADS SUPPLY INLET,Air,1
 Node,554,THERMAL ZONE: UNIT_2117_4B RETURN OUTLET,Air,0
 Node,555,THERMAL ZONE: XFMR_0201 ZONE AIR NODE,Air,0
 Node,556,THERMAL ZONE: XFMR_0201 IDEAL LOADS SUPPLY INLET,Air,1
 Node,557,THERMAL ZONE: XFMR_0201 RETURN OUTLET,Air,0
 Node,558,THERMAL ZONE: XFMR_0401 ZONE AIR NODE,Air,0
 Node,559,THERMAL ZONE: XFMR_0401 IDEAL LOADS SUPPLY INLET,Air,1
 Node,560,THERMAL ZONE: XFMR_0401 RETURN OUTLET,Air,0
 Node,561,MODEL OUTDOOR AIR NODE,Air,0
! ===============================================================
! Suspicious nodes have 0 references.  It is normal for some nodes, however.
! Listing nodes with 0 references (culled from previous list):
! <Suspicious Node>,<NodeNumber>,<Node Name>,<Node Fluid Type>,<# Times Node Referenced After Definition>
 Suspicious Node,15,THERMAL ZONE: AMEN_0300 ZONE AIR NODE,Air,0
 Suspicious Node,17,THERMAL ZONE: AMEN_0300 RETURN OUTLET,Air,0
 Suspicious Node,18,THERMAL ZONE: AMEN_0400 ZONE AIR NODE,Air,0
 Suspicious Node,20,THERMAL ZONE: AMEN_0400 RETURN OUTLET,Air,0
 Suspicious Node,21,THERMAL ZONE: AMEN_0501 ZONE AIR NODE,Air,0
 Suspicious Node,23,THERMAL ZONE: AMEN_0501 RETURN OUTLET,Air,0
 Suspicious Node,24,THERMAL ZONE: AMEN_2100 ZONE AIR NODE,Air,0
 Suspicious Node,26,THERMAL ZONE: AMEN_2100 RETURN OUTLET,Air,0
 Suspicious Node,27,THERMAL ZONE: AMEN_2200 ZONE AIR NODE,Air,0
 Suspicious Node,29,THERMAL ZONE: AMEN_2200 RETURN OUTLET,Air,0
 Suspicious Node,30,THERMAL ZONE: AMEN_2300 ZONE AIR NODE,Air,0
 Suspicious Node,32,THERMAL ZONE: AMEN_2300 RETURN OUTLET,Air,0
 Suspicious Node,33,THERMAL ZONE: BOH_0100 ZONE AIR NODE,Air,0
 Suspicious Node,35,THERMAL ZONE: BOH_0100 RETURN OUTLET,Air,0
 Suspicious Node,36,THERMAL ZONE: CORR_0100 ZONE AIR NODE,Air,0
 Suspicious Node,38,THERMAL ZONE: CORR_0100 RETURN OUTLET,Air,0
 Suspicious Node,39,THERMAL ZONE: CORR_0200 ZONE AIR NODE,Air,0
 Suspicious Node,41,THERMAL ZONE: CORR_0200 RETURN OUTLET,Air,0
 Suspicious Node,42,THERMAL ZONE: CORR_0300 ZONE AIR NODE,Air,0
 Suspicious Node,44,THERMAL ZONE: CORR_0300 RETURN OUTLET,Air,0
 Suspicious Node,45,THERMAL ZONE: CORR_0400 ZONE AIR NODE,Air,0
 Suspicious Node,47,THERMAL ZONE: CORR_0400 RETURN OUTLET,Air,0
 Suspicious Node,48,THERMAL ZONE: CORR_0500 ZONE AIR NODE,Air,0
 Suspicious Node,50,THERMAL ZONE: CORR_0500 RETURN OUTLET,Air,0
 Suspicious Node,51,THERMAL ZONE: CORR_2100 ZONE AIR NODE,Air,0
 Suspicious Node,53,THERMAL ZONE: CORR_2100 RETURN OUTLET,Air,0
 Suspicious Node,54,THERMAL ZONE: CORR_2300 ZONE AIR NODE,Air,0
 Suspicious Node,56,THERMAL ZONE: CORR_2300 RETURN OUTLET,Air,0
 Suspicious Node,57,THERMAL ZONE: CORR_2301 ZONE AIR NODE,Air,0
 Suspicious Node,59,THERMAL ZONE: CORR_2301 RETURN OUTLET,Air,0
 Suspicious Node,60,THERMAL ZONE: ELEC_0300 ZONE AIR NODE,Air,0
 Suspicious Node,62,THERMAL ZONE: ELEC_0300 RETURN OUTLET,Air,0
 Suspicious Node,63,THERMAL ZONE: ELEC_0400 ZONE AIR NODE,Air,0
 Suspicious Node,65,THERMAL ZONE: ELEC_0400 RETURN OUTLET,Air,0
 Suspicious Node,66,THERMAL ZONE: ELEV CONTROL_2301 ZONE AIR NODE,Air,0
 Suspicious Node,68,THERMAL ZONE: ELEV CONTROL_2301 RETURN OUTLET,Air,0
 Suspicious Node,69,THERMAL ZONE: ELEV CONTROL_2302 ZONE AIR NODE,Air,0
 Suspicious Node,71,THERMAL ZONE: ELEV CONTROL_2302 RETURN OUTLET,Air,0
 Suspicious Node,72,THERMAL ZONE: ELEV LOBBY_2300 ZONE AIR NODE,Air,0
 Suspicious Node,74,THERMAL ZONE: ELEV LOBBY_2300 RETURN OUTLET,Air,0
 Suspicious Node,75,THERMAL ZONE: ELEV LOBBY_P101 ZONE AIR NODE,Air,0
 Suspicious Node,77,THERMAL ZONE: ELEV LOBBY_P101 RETURN OUTLET,Air,0
 Suspicious Node,78,THERMAL ZONE: ELEV LOBBY_P200 ZONE AIR NODE,Air,0
 Suspicious Node,80,THERMAL ZONE: ELEV LOBBY_P200 RETURN OUTLET,Air,0
 Suspicious Node,81,THERMAL ZONE: ELEV_0101 ZONE AIR NODE,Air,0
 Suspicious Node,83,THERMAL ZONE: ELEV_0101 RETURN OUTLET,Air,0
 Suspicious Node,84,THERMAL ZONE: ELEV_0102 ZONE AIR NODE,Air,0
 Suspicious Node,86,THERMAL ZONE: ELEV_0102 RETURN OUTLET,Air,0
 Suspicious Node,87,THERMAL ZONE: ELEV_0201 ZONE AIR NODE,Air,0
 Suspicious Node,89,THERMAL ZONE: ELEV_0201 RETURN OUTLET,Air,0
 Suspicious Node,90,THERMAL ZONE: ELEV_0202 ZONE AIR NODE,Air,0
 Suspicious Node,92,THERMAL ZONE: ELEV_0202 RETURN OUTLET,Air,0
 Suspicious Node,93,THERMAL ZONE: ELEV_0301 ZONE AIR NODE,Air,0
 Suspicious Node,95,THERMAL ZONE: ELEV_0301 RETURN OUTLET,Air,0
 Suspicious Node,96,THERMAL ZONE: ELEV_0302 ZONE AIR NODE,Air,0
 Suspicious Node,98,THERMAL ZONE: ELEV_0302 RETURN OUTLET,Air,0
 Suspicious Node,99,THERMAL ZONE: ELEV_0401 ZONE AIR NODE,Air,0
 Suspicious Node,101,THERMAL ZONE: ELEV_0401 RETURN OUTLET,Air,0
 Suspicious Node,102,THERMAL ZONE: ELEV_0402 ZONE AIR NODE,Air,0
 Suspicious Node,104,THERMAL ZONE: ELEV_0402 RETURN OUTLET,Air,0
 Suspicious Node,105,THERMAL ZONE: ELEV_0501 ZONE AIR NODE,Air,0
 Suspicious Node,107,THERMAL ZONE: ELEV_0501 RETURN OUTLET,Air,0
 Suspicious Node,108,THERMAL ZONE: ELEV_0502 ZONE AIR NODE,Air,0
 Suspicious Node,110,THERMAL ZONE: ELEV_0502 RETURN OUTLET,Air,0
 Suspicious Node,111,THERMAL ZONE: ELEV_2101 ZONE AIR NODE,Air,0
 Suspicious Node,113,THERMAL ZONE: ELEV_2101 RETURN OUTLET,Air,0
 Suspicious Node,114,THERMAL ZONE: ELEV_2102 ZONE AIR NODE,Air,0
 Suspicious Node,116,THERMAL ZONE: ELEV_2102 RETURN OUTLET,Air,0
 Suspicious Node,117,THERMAL ZONE: ELEV_2301 ZONE AIR NODE,Air,0
 Suspicious Node,119,THERMAL ZONE: ELEV_2301 RETURN OUTLET,Air,0
 Suspicious Node,120,THERMAL ZONE: ELEV_2302 ZONE AIR NODE,Air,0
 Suspicious Node,122,THERMAL ZONE: ELEV_2302 RETURN OUTLET,Air,0
 Suspicious Node,123,THERMAL ZONE: ELEV_2303 ZONE AIR NODE,Air,0
 Suspicious Node,125,THERMAL ZONE: ELEV_2303 RETURN OUTLET,Air,0
 Suspicious Node,126,THERMAL ZONE: ELEV_2304 ZONE AIR NODE,Air,0
 Suspicious Node,128,THERMAL ZONE: ELEV_2304 RETURN OUTLET,Air,0
 Suspicious Node,129,THERMAL ZONE: ELEV_P101 ZONE AIR NODE,Air,0
 Suspicious Node,131,THERMAL ZONE: ELEV_P101 RETURN OUTLET,Air,0
 Suspicious Node,132,THERMAL ZONE: ELEV_P102 ZONE AIR NODE,Air,0
 Suspicious Node,134,THERMAL ZONE: ELEV_P102 RETURN OUTLET,Air,0
 Suspicious Node,135,THERMAL ZONE: ELEV_P201 ZONE AIR NODE,Air,0
 Suspicious Node,137,THERMAL ZONE: ELEV_P201 RETURN OUTLET,Air,0
 Suspicious Node,138,THERMAL ZONE: ELEV_P202 ZONE AIR NODE,Air,0
 Suspicious Node,140,THERMAL ZONE: ELEV_P202 RETURN OUTLET,Air,0
 Suspicious Node,141,THERMAL ZONE: FCC_0100 ZONE AIR NODE,Air,0
 Suspicious Node,143,THERMAL ZONE: FCC_0100 RETURN OUTLET,Air,0
 Suspicious Node,144,THERMAL ZONE: FITNESS_2200 ZONE AIR NODE,Air,0
 Suspicious Node,146,THERMAL ZONE: FITNESS_2200 RETURN OUTLET,Air,0
 Suspicious Node,147,THERMAL ZONE: LEASING_0100 ZONE AIR NODE,Air,0
 Suspicious Node,149,THERMAL ZONE: LEASING_0100 RETURN OUTLET,Air,0
 Suspicious Node,150,THERMAL ZONE: LOBBY_MAIL_0100 ZONE AIR NODE,Air,0
 Suspicious Node,152,THERMAL ZONE: LOBBY_MAIL_0100 RETURN OUTLET,Air,0
 Suspicious Node,153,THERMAL ZONE: LOUNGE_2300 ZONE AIR NODE,Air,0
 Suspicious Node,155,THERMAL ZONE: LOUNGE_2300 RETURN OUTLET,Air,0
 Suspicious Node,156,THERMAL ZONE: LOUNGE_2301 ZONE AIR NODE,Air,0
 Suspicious Node,158,THERMAL ZONE: LOUNGE_2301 RETURN OUTLET,Air,0
 Suspicious Node,159,THERMAL ZONE: MECH_0200 ZONE AIR NODE,Air,0
 Suspicious Node,161,THERMAL ZONE: MECH_0200 RETURN OUTLET,Air,0
 Suspicious Node,162,THERMAL ZONE: MECH_0300 ZONE AIR NODE,Air,0
 Suspicious Node,164,THERMAL ZONE: MECH_0300 RETURN OUTLET,Air,0
 Suspicious Node,165,THERMAL ZONE: MECH_0400 ZONE AIR NODE,Air,0
 Suspicious Node,167,THERMAL ZONE: MECH_0400 RETURN OUTLET,Air,0
 Suspicious Node,168,THERMAL ZONE: MECH_0500 ZONE AIR NODE,Air,0
 Suspicious Node,170,THERMAL ZONE: MECH_0500 RETURN OUTLET,Air,0
 Suspicious Node,171,THERMAL ZONE: MECH_2100 ZONE AIR NODE,Air,0
 Suspicious Node,173,THERMAL ZONE: MECH_2100 RETURN OUTLET,Air,0
 Suspicious Node,174,THERMAL ZONE: PACKAGE_0100 ZONE AIR NODE,Air,0
 Suspicious Node,176,THERMAL ZONE: PACKAGE_0100 RETURN OUTLET,Air,0
 Suspicious Node,177,THERMAL ZONE: RESTROOM_0100 ZONE AIR NODE,Air,0
 Suspicious Node,179,THERMAL ZONE: RESTROOM_0100 RETURN OUTLET,Air,0
 Suspicious Node,180,THERMAL ZONE: RESTROOM_2201 ZONE AIR NODE,Air,0
 Suspicious Node,182,THERMAL ZONE: RESTROOM_2201 RETURN OUTLET,Air,0
 Suspicious Node,183,THERMAL ZONE: RESTROOM_2300 ZONE AIR NODE,Air,0
 Suspicious Node,185,THERMAL ZONE: RESTROOM_2300 RETURN OUTLET,Air,0
 Suspicious Node,186,THERMAL ZONE: RETAIL STORAGE_0100 ZONE AIR NODE,Air,0
 Suspicious Node,188,THERMAL ZONE: RETAIL STORAGE_0100 RETURN OUTLET,Air,0
 Suspicious Node,189,THERMAL ZONE: RETAIL_0100 ZONE AIR NODE,Air,0
 Suspicious Node,191,THERMAL ZONE: RETAIL_0100 RETURN OUTLET,Air,0
 Suspicious Node,192,THERMAL ZONE: STAIR_0101 ZONE AIR NODE,Air,0
 Suspicious Node,194,THERMAL ZONE: STAIR_0101 RETURN OUTLET,Air,0
 Suspicious Node,195,THERMAL ZONE: STAIR_0102 ZONE AIR NODE,Air,0
 Suspicious Node,197,THERMAL ZONE: STAIR_0102 RETURN OUTLET,Air,0
 Suspicious Node,198,THERMAL ZONE: STAIR_0201 ZONE AIR NODE,Air,0
 Suspicious Node,200,THERMAL ZONE: STAIR_0201 RETURN OUTLET,Air,0
 Suspicious Node,201,THERMAL ZONE: STAIR_0202 ZONE AIR NODE,Air,0
 Suspicious Node,203,THERMAL ZONE: STAIR_0202 RETURN OUTLET,Air,0
 Suspicious Node,204,THERMAL ZONE: STAIR_0301 ZONE AIR NODE,Air,0
 Suspicious Node,206,THERMAL ZONE: STAIR_0301 RETURN OUTLET,Air,0
 Suspicious Node,207,THERMAL ZONE: STAIR_0302 ZONE AIR NODE,Air,0
 Suspicious Node,209,THERMAL ZONE: STAIR_0302 RETURN OUTLET,Air,0
 Suspicious Node,210,THERMAL ZONE: STAIR_0401 ZONE AIR NODE,Air,0
 Suspicious Node,212,THERMAL ZONE: STAIR_0401 RETURN OUTLET,Air,0
 Suspicious Node,213,THERMAL ZONE: STAIR_0402 ZONE AIR NODE,Air,0
 Suspicious Node,215,THERMAL ZONE: STAIR_0402 RETURN OUTLET,Air,0
 Suspicious Node,216,THERMAL ZONE: STAIR_0501 ZONE AIR NODE,Air,0
 Suspicious Node,218,THERMAL ZONE: STAIR_0501 RETURN OUTLET,Air,0
 Suspicious Node,219,THERMAL ZONE: STAIR_0502 ZONE AIR NODE,Air,0
 Suspicious Node,221,THERMAL ZONE: STAIR_0502 RETURN OUTLET,Air,0
 Suspicious Node,222,THERMAL ZONE: STAIR_2101 ZONE AIR NODE,Air,0
 Suspicious Node,224,THERMAL ZONE: STAIR_2101 RETURN OUTLET,Air,0
 Suspicious Node,225,THERMAL ZONE: STAIR_2102 ZONE AIR NODE,Air,0
 Suspicious Node,227,THERMAL ZONE: STAIR_2102 RETURN OUTLET,Air,0
 Suspicious Node,228,THERMAL ZONE: STAIR_2201 ZONE AIR NODE,Air,0
 Suspicious Node,230,THERMAL ZONE: STAIR_2201 RETURN OUTLET,Air,0
 Suspicious Node,231,THERMAL ZONE: STAIR_2202 ZONE AIR NODE,Air,0
 Suspicious Node,233,THERMAL ZONE: STAIR_2202 RETURN OUTLET,Air,0
 Suspicious Node,234,THERMAL ZONE: STAIR_2301 ZONE AIR NODE,Air,0
 Suspicious Node,236,THERMAL ZONE: STAIR_2301 RETURN OUTLET,Air,0
 Suspicious Node,237,THERMAL ZONE: STAIR_2302 ZONE AIR NODE,Air,0
 Suspicious Node,239,THERMAL ZONE: STAIR_2302 RETURN OUTLET,Air,0
 Suspicious Node,240,THERMAL ZONE: STAIR_P101 ZONE AIR NODE,Air,0
 Suspicious Node,242,THERMAL ZONE: STAIR_P101 RETURN OUTLET,Air,0
 Suspicious Node,243,THERMAL ZONE: STAIR_P102 ZONE AIR NODE,Air,0
 Suspicious Node,245,THERMAL ZONE: STAIR_P102 RETURN OUTLET,Air,0
 Suspicious Node,246,THERMAL ZONE: STAIR_P201 ZONE AIR NODE,Air,0
 Suspicious Node,248,THERMAL ZONE: STAIR_P201 RETURN OUTLET,Air,0
 Suspicious Node,249,THERMAL ZONE: STAIR_P202 ZONE AIR NODE,Air,0
 Suspicious Node,251,THERMAL ZONE: STAIR_P202 RETURN OUTLET,Air,0
 Suspicious Node,252,THERMAL ZONE: STOR_0100 ZONE AIR NODE,Air,0
 Suspicious Node,254,THERMAL ZONE: STOR_0100 RETURN OUTLET,Air,0
 Suspicious Node,255,THERMAL ZONE: STOR_0200 ZONE AIR NODE,Air,0
 Suspicious Node,257,THERMAL ZONE: STOR_0200 RETURN OUTLET,Air,0
 Suspicious Node,258,THERMAL ZONE: STOR_0300 ZONE AIR NODE,Air,0
 Suspicious Node,260,THERMAL ZONE: STOR_0300 RETURN OUTLET,Air,0
 Suspicious Node,261,THERMAL ZONE: STOR_0400 ZONE AIR NODE,Air,0
 Suspicious Node,263,THERMAL ZONE: STOR_0400 RETURN OUTLET,Air,0
 Suspicious Node,264,THERMAL ZONE: STOR_0500 ZONE AIR NODE,Air,0
 Suspicious Node,266,THERMAL ZONE: STOR_0500 RETURN OUTLET,Air,0
 Suspicious Node,267,THERMAL ZONE: STOR_2100 ZONE AIR NODE,Air,0
 Suspicious Node,269,THERMAL ZONE: STOR_2100 RETURN OUTLET,Air,0
 Suspicious Node,270,THERMAL ZONE: STOR_P100 ZONE AIR NODE,Air,0
 Suspicious Node,272,THERMAL ZONE: STOR_P100 RETURN OUTLET,Air,0
 Suspicious Node,273,THERMAL ZONE: STOR_P200 ZONE AIR NODE,Air,0
 Suspicious Node,275,THERMAL ZONE: STOR_P200 RETURN OUTLET,Air,0
 Suspicious Node,276,THERMAL ZONE: TRASH_0200 ZONE AIR NODE,Air,0
 Suspicious Node,278,THERMAL ZONE: TRASH_0200 RETURN OUTLET,Air,0
 Suspicious Node,279,THERMAL ZONE: TRASH_0300 ZONE AIR NODE,Air,0
 Suspicious Node,281,THERMAL ZONE: TRASH_0300 RETURN OUTLET,Air,0
 Suspicious Node,282,THERMAL ZONE: TRASH_0400 ZONE AIR NODE,Air,0
 Suspicious Node,284,THERMAL ZONE: TRASH_0400 RETURN OUTLET,Air,0
 Suspicious Node,285,THERMAL ZONE: TRASH_0500 ZONE AIR NODE,Air,0
 Suspicious Node,287,THERMAL ZONE: TRASH_0500 RETURN OUTLET,Air,0
 Suspicious Node,288,THERMAL ZONE: TRASH_2100 ZONE AIR NODE,Air,0
 Suspicious Node,290,THERMAL ZONE: TRASH_2100 RETURN OUTLET,Air,0
 Suspicious Node,291,THERMAL ZONE: TRASH_2200 ZONE AIR NODE,Air,0
 Suspicious Node,293,THERMAL ZONE: TRASH_2200 RETURN OUTLET,Air,0
 Suspicious Node,294,THERMAL ZONE: UNIT_0201_4B ZONE AIR NODE,Air,0
 Suspicious Node,296,THERMAL ZONE: UNIT_0201_4B RETURN OUTLET,Air,0
 Suspicious Node,297,THERMAL ZONE: UNIT_0202 ZONE AIR NODE,Air,0
 Suspicious Node,299,THERMAL ZONE: UNIT_0202 RETURN OUTLET,Air,0
 Suspicious Node,300,THERMAL ZONE: UNIT_0203 ZONE AIR NODE,Air,0
 Suspicious Node,302,THERMAL ZONE: UNIT_0203 RETURN OUTLET,Air,0
 Suspicious Node,303,THERMAL ZONE: UNIT_0204 ZONE AIR NODE,Air,0
 Suspicious Node,305,THERMAL ZONE: UNIT_0204 RETURN OUTLET,Air,0
 Suspicious Node,306,THERMAL ZONE: UNIT_0205 ZONE AIR NODE,Air,0
 Suspicious Node,308,THERMAL ZONE: UNIT_0205 RETURN OUTLET,Air,0
 Suspicious Node,309,THERMAL ZONE: UNIT_0206 ZONE AIR NODE,Air,0
 Suspicious Node,311,THERMAL ZONE: UNIT_0206 RETURN OUTLET,Air,0
 Suspicious Node,312,THERMAL ZONE: UNIT_0207 ZONE AIR NODE,Air,0
 Suspicious Node,314,THERMAL ZONE: UNIT_0207 RETURN OUTLET,Air,0
 Suspicious Node,315,THERMAL ZONE: UNIT_0208 ZONE AIR NODE,Air,0
 Suspicious Node,317,THERMAL ZONE: UNIT_0208 RETURN OUTLET,Air,0
 Suspicious Node,318,THERMAL ZONE: UNIT_0209_3B ZONE AIR NODE,Air,0
 Suspicious Node,320,THERMAL ZONE: UNIT_0209_3B RETURN OUTLET,Air,0
 Suspicious Node,321,THERMAL ZONE: UNIT_0210 ZONE AIR NODE,Air,0
 Suspicious Node,323,THERMAL ZONE: UNIT_0210 RETURN OUTLET,Air,0
 Suspicious Node,324,THERMAL ZONE: UNIT_0211_2B ZONE AIR NODE,Air,0
 Suspicious Node,326,THERMAL ZONE: UNIT_0211_2B RETURN OUTLET,Air,0
 Suspicious Node,327,THERMAL ZONE: UNIT_0212 ZONE AIR NODE,Air,0
 Suspicious Node,329,THERMAL ZONE: UNIT_0212 RETURN OUTLET,Air,0
 Suspicious Node,330,THERMAL ZONE: UNIT_0213 ZONE AIR NODE,Air,0
 Suspicious Node,332,THERMAL ZONE: UNIT_0213 RETURN OUTLET,Air,0
 Suspicious Node,333,THERMAL ZONE: UNIT_0214 ZONE AIR NODE,Air,0
 Suspicious Node,335,THERMAL ZONE: UNIT_0214 RETURN OUTLET,Air,0
 Suspicious Node,336,THERMAL ZONE: UNIT_0215 ZONE AIR NODE,Air,0
 Suspicious Node,338,THERMAL ZONE: UNIT_0215 RETURN OUTLET,Air,0
 Suspicious Node,339,THERMAL ZONE: UNIT_0216 ZONE AIR NODE,Air,0
 Suspicious Node,341,THERMAL ZONE: UNIT_0216 RETURN OUTLET,Air,0
 Suspicious Node,342,THERMAL ZONE: UNIT_0217 ZONE AIR NODE,Air,0
 Suspicious Node,344,THERMAL ZONE: UNIT_0217 RETURN OUTLET,Air,0
 Suspicious Node,345,THERMAL ZONE: UNIT_0218 ZONE AIR NODE,Air,0
 Suspicious Node,347,THERMAL ZONE: UNIT_0218 RETURN OUTLET,Air,0
 Suspicious Node,348,THERMAL ZONE: UNIT_0219_4B ZONE AIR NODE,Air,0
 Suspicious Node,350,THERMAL ZONE: UNIT_0219_4B RETURN OUTLET,Air,0
 Suspicious Node,351,THERMAL ZONE: UNIT_0301_4B ZONE AIR NODE,Air,0
 Suspicious Node,353,THERMAL ZONE: UNIT_0301_4B RETURN OUTLET,Air,0
 Suspicious Node,354,THERMAL ZONE: UNIT_0302 ZONE AIR NODE,Air,0
 Suspicious Node,356,THERMAL ZONE: UNIT_0302 RETURN OUTLET,Air,0
 Suspicious Node,357,THERMAL ZONE: UNIT_0303 ZONE AIR NODE,Air,0
 Suspicious Node,359,THERMAL ZONE: UNIT_0303 RETURN OUTLET,Air,0
 Suspicious Node,360,THERMAL ZONE: UNIT_0304 ZONE AIR NODE,Air,0
 Suspicious Node,362,THERMAL ZONE: UNIT_0304 RETURN OUTLET,Air,0
 Suspicious Node,363,THERMAL ZONE: UNIT_0305 ZONE AIR NODE,Air,0
 Suspicious Node,365,THERMAL ZONE: UNIT_0305 RETURN OUTLET,Air,0
 Suspicious Node,366,THERMAL ZONE: UNIT_0306 ZONE AIR NODE,Air,0
 Suspicious Node,368,THERMAL ZONE: UNIT_0306 RETURN OUTLET,Air,0
 Suspicious Node,369,THERMAL ZONE: UNIT_0307_3B ZONE AIR NODE,Air,0
 Suspicious Node,371,THERMAL ZONE: UNIT_0307_3B RETURN OUTLET,Air,0
 Suspicious Node,372,THERMAL ZONE: UNIT_0308 ZONE AIR NODE,Air,0
 Suspicious Node,374,THERMAL ZONE: UNIT_0308 RETURN OUTLET,Air,0
 Suspicious Node,375,THERMAL ZONE: UNIT_0309_2B ZONE AIR NODE,Air,0
 Suspicious Node,377,THERMAL ZONE: UNIT_0309_2B RETURN OUTLET,Air,0
 Suspicious Node,378,THERMAL ZONE: UNIT_0310 ZONE AIR NODE,Air,0
 Suspicious Node,380,THERMAL ZONE: UNIT_0310 RETURN OUTLET,Air,0
 Suspicious Node,381,THERMAL ZONE: UNIT_0311 ZONE AIR NODE,Air,0
 Suspicious Node,383,THERMAL ZONE: UNIT_0311 RETURN OUTLET,Air,0
 Suspicious Node,384,THERMAL ZONE: UNIT_0312 ZONE AIR NODE,Air,0
 Suspicious Node,386,THERMAL ZONE: UNIT_0312 RETURN OUTLET,Air,0
 Suspicious Node,387,THERMAL ZONE: UNIT_0313 ZONE AIR NODE,Air,0
 Suspicious Node,389,THERMAL ZONE: UNIT_0313 RETURN OUTLET,Air,0
 Suspicious Node,390,THERMAL ZONE: UNIT_0314 ZONE AIR NODE,Air,0
 Suspicious Node,392,THERMAL ZONE: UNIT_0314 RETURN OUTLET,Air,0
 Suspicious Node,393,THERMAL ZONE: UNIT_0315 ZONE AIR NODE,Air,0
 Suspicious Node,395,THERMAL ZONE: UNIT_0315 RETURN OUTLET,Air,0
 Suspicious Node,396,THERMAL ZONE: UNIT_0316 ZONE AIR NODE,Air,0
 Suspicious Node,398,THERMAL ZONE: UNIT_0316 RETURN OUTLET,Air,0
 Suspicious Node,399,THERMAL ZONE: UNIT_0317_4B ZONE AIR NODE,Air,0
 Suspicious Node,401,THERMAL ZONE: UNIT_0317_4B RETURN OUTLET,Air,0
 Suspicious Node,402,THERMAL ZONE: UNIT_0401_4B ZONE AIR NODE,Air,0
 Suspicious Node,404,THERMAL ZONE: UNIT_0401_4B RETURN OUTLET,Air,0
 Suspicious Node,405,THERMAL ZONE: UNIT_0402 ZONE AIR NODE,Air,0
 Suspicious Node,407,THERMAL ZONE: UNIT_0402 RETURN OUTLET,Air,0
 Suspicious Node,408,THERMAL ZONE: UNIT_0403 ZONE AIR NODE,Air,0
 Suspicious Node,410,THERMAL ZONE: UNIT_0403 RETURN OUTLET,Air,0
 Suspicious Node,411,THERMAL ZONE: UNIT_0404 ZONE AIR NODE,Air,0
 Suspicious Node,413,THERMAL ZONE: UNIT_0404 RETURN OUTLET,Air,0
 Suspicious Node,414,THERMAL ZONE: UNIT_0405 ZONE AIR NODE,Air,0
 Suspicious Node,416,THERMAL ZONE: UNIT_0405 RETURN OUTLET,Air,0
 Suspicious Node,417,THERMAL ZONE: UNIT_0406 ZONE AIR NODE,Air,0
 Suspicious Node,419,THERMAL ZONE: UNIT_0406 RETURN OUTLET,Air,0
 Suspicious Node,420,THERMAL ZONE: UNIT_0407_3B ZONE AIR NODE,Air,0
 Suspicious Node,422,THERMAL ZONE: UNIT_0407_3B RETURN OUTLET,Air,0
 Suspicious Node,423,THERMAL ZONE: UNIT_0408 ZONE AIR NODE,Air,0
 Suspicious Node,425,THERMAL ZONE: UNIT_0408 RETURN OUTLET,Air,0
 Suspicious Node,426,THERMAL ZONE: UNIT_0409_2B ZONE AIR NODE,Air,0
 Suspicious Node,428,THERMAL ZONE: UNIT_0409_2B RETURN OUTLET,Air,0
 Suspicious Node,429,THERMAL ZONE: UNIT_0410 ZONE AIR NODE,Air,0
 Suspicious Node,431,THERMAL ZONE: UNIT_0410 RETURN OUTLET,Air,0
 Suspicious Node,432,THERMAL ZONE: UNIT_0411 ZONE AIR NODE,Air,0
 Suspicious Node,434,THERMAL ZONE: UNIT_0411 RETURN OUTLET,Air,0
 Suspicious Node,435,THERMAL ZONE: UNIT_0412 ZONE AIR NODE,Air,0
 Suspicious Node,437,THERMAL ZONE: UNIT_0412 RETURN OUTLET,Air,0
 Suspicious Node,438,THERMAL ZONE: UNIT_0413 ZONE AIR NODE,Air,0
 Suspicious Node,440,THERMAL ZONE: UNIT_0413 RETURN OUTLET,Air,0
 Suspicious Node,441,THERMAL ZONE: UNIT_0414 ZONE AIR NODE,Air,0
 Suspicious Node,443,THERMAL ZONE: UNIT_0414 RETURN OUTLET,Air,0
 Suspicious Node,444,THERMAL ZONE: UNIT_0415 ZONE AIR NODE,Air,0
 Suspicious Node,446,THERMAL ZONE: UNIT_0415 RETURN OUTLET,Air,0
 Suspicious Node,447,THERMAL ZONE: UNIT_0416 ZONE AIR NODE,Air,0
 Suspicious Node,449,THERMAL ZONE: UNIT_0416 RETURN OUTLET,Air,0
 Suspicious Node,450,THERMAL ZONE: UNIT_0417_4B ZONE AIR NODE,Air,0
 Suspicious Node,452,THERMAL ZONE: UNIT_0417_4B RETURN OUTLET,Air,0
 Suspicious Node,453,THERMAL ZONE: UNIT_0501_4B ZONE AIR NODE,Air,0
 Suspicious Node,455,THERMAL ZONE: UNIT_0501_4B RETURN OUTLET,Air,0
 Suspicious Node,456,THERMAL ZONE: UNIT_0502 ZONE AIR NODE,Air,0
 Suspicious Node,458,THERMAL ZONE: UNIT_0502 RETURN OUTLET,Air,0
 Suspicious Node,459,THERMAL ZONE: UNIT_0503 ZONE AIR NODE,Air,0
 Suspicious Node,461,THERMAL ZONE: UNIT_0503 RETURN OUTLET,Air,0
 Suspicious Node,462,THERMAL ZONE: UNIT_0504 ZONE AIR NODE,Air,0
 Suspicious Node,464,THERMAL ZONE: UNIT_0504 RETURN OUTLET,Air,0
 Suspicious Node,465,THERMAL ZONE: UNIT_0505 ZONE AIR NODE,Air,0
 Suspicious Node,467,THERMAL ZONE: UNIT_0505 RETURN OUTLET,Air,0
 Suspicious Node,468,THERMAL ZONE: UNIT_0506 ZONE AIR NODE,Air,0
 Suspicious Node,470,THERMAL ZONE: UNIT_0506 RETURN OUTLET,Air,0
 Suspicious Node,471,THERMAL ZONE: UNIT_0507_3B ZONE AIR NODE,Air,0
 Suspicious Node,473,THERMAL ZONE: UNIT_0507_3B RETURN OUTLET,Air,0
 Suspicious Node,474,THERMAL ZONE: UNIT_0508 ZONE AIR NODE,Air,0
 Suspicious Node,476,THERMAL ZONE: UNIT_0508 RETURN OUTLET,Air,0
 Suspicious Node,477,THERMAL ZONE: UNIT_0509_2B ZONE AIR NODE,Air,0
 Suspicious Node,479,THERMAL ZONE: UNIT_0509_2B RETURN OUTLET,Air,0
 Suspicious Node,480,THERMAL ZONE: UNIT_0510 ZONE AIR NODE,Air,0
 Suspicious Node,482,THERMAL ZONE: UNIT_0510 RETURN OUTLET,Air,0
 Suspicious Node,483,THERMAL ZONE: UNIT_0511 ZONE AIR NODE,Air,0
 Suspicious Node,485,THERMAL ZONE: UNIT_0511 RETURN OUTLET,Air,0
 Suspicious Node,486,THERMAL ZONE: UNIT_0512 ZONE AIR NODE,Air,0
 Suspicious Node,488,THERMAL ZONE: UNIT_0512 RETURN OUTLET,Air,0
 Suspicious Node,489,THERMAL ZONE: UNIT_0513 ZONE AIR NODE,Air,0
 Suspicious Node,491,THERMAL ZONE: UNIT_0513 RETURN OUTLET,Air,0
 Suspicious Node,492,THERMAL ZONE: UNIT_0514 ZONE AIR NODE,Air,0
 Suspicious Node,494,THERMAL ZONE: UNIT_0514 RETURN OUTLET,Air,0
 Suspicious Node,495,THERMAL ZONE: UNIT_0515 ZONE AIR NODE,Air,0
 Suspicious Node,497,THERMAL ZONE: UNIT_0515 RETURN OUTLET,Air,0
 Suspicious Node,498,THERMAL ZONE: UNIT_0516 ZONE AIR NODE,Air,0
 Suspicious Node,500,THERMAL ZONE: UNIT_0516 RETURN OUTLET,Air,0
 Suspicious Node,501,THERMAL ZONE: UNIT_0517_4B ZONE AIR NODE,Air,0
 Suspicious Node,503,THERMAL ZONE: UNIT_0517_4B RETURN OUTLET,Air,0
 Suspicious Node,504,THERMAL ZONE: UNIT_2101_4B ZONE AIR NODE,Air,0
 Suspicious Node,506,THERMAL ZONE: UNIT_2101_4B RETURN OUTLET,Air,0
 Suspicious Node,507,THERMAL ZONE: UNIT_2102 ZONE AIR NODE,Air,0
 Suspicious Node,509,THERMAL ZONE: UNIT_2102 RETURN OUTLET,Air,0
 Suspicious Node,510,THERMAL ZONE: UNIT_2103 ZONE AIR NODE,Air,0
 Suspicious Node,512,THERMAL ZONE: UNIT_2103 RETURN OUTLET,Air,0
 Suspicious Node,513,THERMAL ZONE: UNIT_2104 ZONE AIR NODE,Air,0
 Suspicious Node,515,THERMAL ZONE: UNIT_2104 RETURN OUTLET,Air,0
 Suspicious Node,516,THERMAL ZONE: UNIT_2105 ZONE AIR NODE,Air,0
 Suspicious Node,518,THERMAL ZONE: UNIT_2105 RETURN OUTLET,Air,0
 Suspicious Node,519,THERMAL ZONE: UNIT_2106 ZONE AIR NODE,Air,0
 Suspicious Node,521,THERMAL ZONE: UNIT_2106 RETURN OUTLET,Air,0
 Suspicious Node,522,THERMAL ZONE: UNIT_2107_3B ZONE AIR NODE,Air,0
 Suspicious Node,524,THERMAL ZONE: UNIT_2107_3B RETURN OUTLET,Air,0
 Suspicious Node,525,THERMAL ZONE: UNIT_2108 ZONE AIR NODE,Air,0
 Suspicious Node,527,THERMAL ZONE: UNIT_2108 RETURN OUTLET,Air,0
 Suspicious Node,528,THERMAL ZONE: UNIT_2109_2B ZONE AIR NODE,Air,0
 Suspicious Node,530,THERMAL ZONE: UNIT_2109_2B RETURN OUTLET,Air,0
 Suspicious Node,531,THERMAL ZONE: UNIT_2110 ZONE AIR NODE,Air,0
 Suspicious Node,533,THERMAL ZONE: UNIT_2110 RETURN OUTLET,Air,0
 Suspicious Node,534,THERMAL ZONE: UNIT_2111 ZONE AIR NODE,Air,0
 Suspicious Node,536,THERMAL ZONE: UNIT_2111 RETURN OUTLET,Air,0
 Suspicious Node,537,THERMAL ZONE: UNIT_2112 ZONE AIR NODE,Air,0
 Suspicious Node,539,THERMAL ZONE: UNIT_2112 RETURN OUTLET,Air,0
 Suspicious Node,540,THERMAL ZONE: UNIT_2113 ZONE AIR NODE,Air,0
 Suspicious Node,542,THERMAL ZONE: UNIT_2113 RETURN OUTLET,Air,0
 Suspicious Node,543,THERMAL ZONE: UNIT_2114 ZONE AIR NODE,Air,0
 Suspicious Node,545,THERMAL ZONE: UNIT_2114 RETURN OUTLET,Air,0
 Suspicious Node,546,THERMAL ZONE: UNIT_2115 ZONE AIR NODE,Air,0
 Suspicious Node,548,THERMAL ZONE: UNIT_2115 RETURN OUTLET,Air,0
 Suspicious Node,549,THERMAL ZONE: UNIT_2116 ZONE AIR NODE,Air,0
 Suspicious Node,551,THERMAL ZONE: UNIT_2116 RETURN OUTLET,Air,0
 Suspicious Node,552,THERMAL ZONE: UNIT_2117_4B ZONE AIR NODE,Air,0
 Suspicious Node,554,THERMAL ZONE: UNIT_2117_4B RETURN OUTLET,Air,0
 Suspicious Node,555,THERMAL ZONE: XFMR_0201 ZONE AIR NODE,Air,0
 Suspicious Node,557,THERMAL ZONE: XFMR_0201 RETURN OUTLET,Air,0
 Suspicious Node,558,THERMAL ZONE: XFMR_0401 ZONE AIR NODE,Air,0
 Suspicious Node,560,THERMAL ZONE: XFMR_0401 RETURN OUTLET,Air,0
 Suspicious Node,561,MODEL OUTDOOR AIR NODE,Air,0
! ===============================================================
! <#Branch Lists>,<Number of Branch Lists>
 #Branch Lists,2
! <Branch List>,<Branch List Count>,<Branch List Name>,<Loop Name>,<Loop Type>,<Number of Branches>
! <Branch>,<Branch Count>,<Branch Name>,<Loop Name>,<Loop Type>,<Branch Inlet Node Name>,<Branch Outlet Node Name>
 Branch List,1,DHW SUPPLY BRANCHES,DHW,Plant Supply,3
   Branch,1,DHW SUPPLY INLET BRANCH,DHW,Plant Supply,DHW SUPPLY INLET NODE,NODE 192
   Branch,2,DHW SUPPLY BRANCH 1,DHW,Plant Supply,NODE 185,NODE 187
   Branch,3,DHW SUPPLY OUTLET BRANCH,DHW,Plant Supply,NODE 184,DHW SUPPLY OUTLET NODE
 Branch List,2,DHW DEMAND BRANCHES,DHW,Plant Demand,4
   Branch,1,DHW DEMAND INLET BRANCH,DHW,Plant Demand,DHW DEMAND INLET NODE,NODE 183
   Branch,2,DHW DEMAND BRANCH 1,DHW,Plant Demand,NODE 193,NODE 194
   Branch,3,DHW DEMAND BYPASS BRANCH,DHW,Plant Demand,DHW DEMAND BYPASS PIPE INLET NODE,DHW DEMAND BYPASS PIPE OUTLET NODE
   Branch,4,DHW DEMAND OUTLET BRANCH,DHW,Plant Demand,NODE 186,DHW DEMAND OUTLET NODE
! ===============================================================
! <#Supply Air Paths>,<Number of Supply Air Paths>
 #Supply Air Paths,0
! <Supply Air Path>,<Supply Air Path Count>,<Supply Air Path Name>,<AirLoopHVAC Name>
! <#Components on Supply Air Path>,<Number of Components>
! <Supply Air Path Component>,<Component Count>,<Component Type>,<Component Name>,<AirLoopHVAC Name>
! <#Outlet Nodes on Supply Air Path Component>,<Number of Nodes>
! <Supply Air Path Component Nodes>,<Node Count>,<Component Type>,<Component Name>,<Inlet Node Name>,<Outlet Node Name>,<AirLoopHVAC Name>
! ===============================================================
! <#Return Air Paths>,<Number of Return Air Paths>
 #Return Air Paths,0
! <Return Air Path>,<Return Air Path Count>,<Return Air Path Name>,<AirLoopHVAC Name>
! <#Components on Return Air Path>,<Number of Components>
! <Return Air Path Component>,<Component Count>,<Component Type>,<Component Name>,<AirLoopHVAC Name>
! <#Inlet Nodes on Return Air Path Component>,<Number of Nodes>
! <Return Air Path Component Nodes>,<Node Count>,<Component Type>,<Component Name>,<Inlet Node Name>,<Outlet Node Name>,<AirLoopHVAC Name>
! ===============================================================
! #Outdoor Air Nodes,<Number of Outdoor Air Nodes>
 #Outdoor Air Nodes,1
! <Outdoor Air Node>,<NodeNumber>,<Node Name>
 Outdoor Air Node,561,MODEL OUTDOOR AIR NODE
! ===============================================================
! <#Component Sets>,<Number of Component Sets>
 #Component Sets,7
! <Component Set>,<Component Set Count>,<Parent Object Type>,<Parent Object Name>,<Component Type>,<Component Name>,<Inlet Node ID>,<Outlet Node ID>,<Description>
 Component Set,1,BRANCH,DHW SUPPLY INLET BRANCH,PUMP:VARIABLESPEED,DHW SUPPLY PUMP,DHW SUPPLY INLET NODE,NODE 192,Water Nodes
 Component Set,2,BRANCH,DHW SUPPLY BRANCH 1,WATERHEATER:MIXED,WATER HEATER,NODE 185,NODE 187,Use Side Water Nodes
 Component Set,3,BRANCH,DHW SUPPLY OUTLET BRANCH,PIPE:ADIABATIC,PIPE ADIABATIC 2,NODE 184,DHW SUPPLY OUTLET NODE,Pipe Nodes
 Component Set,4,BRANCH,DHW DEMAND INLET BRANCH,PIPE:ADIABATIC,PIPE ADIABATIC 1,DHW DEMAND INLET NODE,NODE 183,Pipe Nodes
 Component Set,5,BRANCH,DHW DEMAND BRANCH 1,WATERUSE:CONNECTIONS,BUILDING WATER USE CONNECTIONS,NODE 193,NODE 194,DHW Nodes
 Component Set,6,BRANCH,DHW DEMAND BYPASS BRANCH,PIPE:ADIABATIC,DHW DEMAND BYPASS PIPE,DHW DEMAND BYPASS PIPE INLET NODE,DHW DEMAND BYPASS PIPE OUTLET NODE,Pipe Nodes
 Component Set,7,BRANCH,DHW DEMAND OUTLET BRANCH,PIPE:ADIABATIC,PIPE ADIABATIC 3,NODE 186,DHW DEMAND OUTLET NODE,Pipe Nodes
! ===============================================================
! <# Plant Loops>,<Number of Plant Loops>
 #Plant Loops,1
! <Plant Loop>,<Plant Loop Name>,<Loop Type>,<Inlet Node Name>,<Outlet Node Name>,<Branch List>,<Connector List>
! <Plant Loop Connector>,<Connector Type>,<Connector Name>,<Loop Name>,<Loop Type>,<Number of Inlets/Outlets>
! <Plant Loop Connector Branches>,<Connector Node Count>,<Connector Type>,<Connector Name>,<Inlet Branch>,<Outlet Branch>,<Loop Name>,<Loop Type>
! <Plant Loop Connector Nodes>,<Connector Node Count>,<Connector Type>,<Connector Name>,<Inlet Node>,<Outlet Node>,<Loop Name>,<Loop Type>
! <Plant Loop Supply Connection>,<Plant Loop Name>,<Supply Side Outlet Node Name>,<Demand Side Inlet Node Name>
! <Plant Loop Return Connection>,<Plant Loop Name>,<Demand Side Outlet Node Name>,<Supply Side Inlet Node Name>
 Plant Loop,DHW,Demand,DHW DEMAND INLET NODE,DHW DEMAND OUTLET NODE,DHW DEMAND BRANCHES,DHW DEMAND CONNECTOR LIST
   Plant Loop Connector,Splitter,DHW DEMAND SPLITTER,DHW,Demand,2
     Plant Loop Connector Branches,1,Splitter,DHW DEMAND SPLITTER,DHW DEMAND INLET BRANCH,DHW DEMAND BRANCH 1,DHW,Demand
     Plant Loop Connector Nodes,   1,Splitter,DHW DEMAND SPLITTER,NODE 183,NODE 193,DHW,Demand
     Plant Loop Connector Branches,2,Splitter,DHW DEMAND SPLITTER,DHW DEMAND INLET BRANCH,DHW DEMAND BYPASS BRANCH,DHW,Demand
     Plant Loop Connector Nodes,   2,Splitter,DHW DEMAND SPLITTER,NODE 183,DHW DEMAND BYPASS PIPE INLET NODE,DHW,Demand
   Plant Loop Connector,Mixer,DHW DEMAND MIXER,DHW,Demand,2
     Plant Loop Connector Branches,1,Mixer,DHW DEMAND MIXER,DHW DEMAND BRANCH 1,DHW DEMAND OUTLET BRANCH,DHW,Demand
     Plant Loop Connector Nodes,   1,Mixer,DHW DEMAND MIXER,NODE 194,NODE 186,DHW,Demand
     Plant Loop Connector Branches,2,Mixer,DHW DEMAND MIXER,DHW DEMAND BYPASS BRANCH,DHW DEMAND OUTLET BRANCH,DHW,Demand
     Plant Loop Connector Nodes,   2,Mixer,DHW DEMAND MIXER,DHW DEMAND BYPASS PIPE OUTLET NODE,NODE 186,DHW,Demand
 Plant Loop,DHW,Supply,DHW SUPPLY INLET NODE,DHW SUPPLY OUTLET NODE,DHW SUPPLY BRANCHES,DHW SUPPLY CONNECTOR LIST
   Plant Loop Connector,Splitter,DHW SUPPLY SPLITTER,DHW,Supply,1
     Plant Loop Connector Branches,1,Splitter,DHW SUPPLY SPLITTER,DHW SUPPLY INLET BRANCH,DHW SUPPLY BRANCH 1,DHW,Supply
     Plant Loop Connector Nodes,   1,Splitter,DHW SUPPLY SPLITTER,NODE 192,NODE 185,DHW,Supply
   Plant Loop Connector,Mixer,DHW SUPPLY MIXER,DHW,Supply,1
     Plant Loop Connector Branches,1,Mixer,DHW SUPPLY MIXER,DHW SUPPLY BRANCH 1,DHW SUPPLY OUTLET BRANCH,DHW,Supply
     Plant Loop Connector Nodes,   1,Mixer,DHW SUPPLY MIXER,NODE 187,NODE 184,DHW,Supply
 Plant Loop Supply Connection,DHW,DHW SUPPLY OUTLET NODE,DHW DEMAND INLET NODE
 Plant Loop Return Connection,DHW,DHW DEMAND OUTLET NODE,DHW SUPPLY INLET NODE
! ===============================================================
! <# Condenser Loops>,<Number of Condenser Loops>
 #Condenser Loops,0
! <Condenser Loop>,<Condenser Loop Name>,<Loop Type>,<Inlet Node Name>,<Outlet Node Name>,<Branch List>,<Connector List>
! <Condenser Loop Connector>,<Connector Type>,<Connector Name>,<Loop Name>,<Loop Type>,<Number of Inlets/Outlets>
! <Condenser Loop Connector Branches>,<Connector Node Count>,<Connector Type>,<Connector Name>,<Inlet Branch>,<Outlet Branch>,<Loop Name>,<Loop Type>
! <Condenser Loop Connector Nodes>,<Connector Node Count>,<Connector Type>,<Connector Name>,<Inlet Node>,<Outlet Node>,<Loop Name>,<Loop Type>
! <Condenser Loop Supply Connection>,<Condenser Loop Name>,<Supply Side Outlet Node Name>,<Demand Side Inlet Node Name>
! <Condenser Loop Return Connection>,<Condenser Loop Name>,<Demand Side Outlet Node Name>,<Supply Side Inlet Node Name>
! ===============================================================
! <# Controlled Zones>,<Number of Controlled Zones>
 #Controlled Zones,182
! <Controlled Zone>,<Controlled Zone Name>,<Equip List Name>,<Control List Name>,<Zone Node Name>,<# Inlet Nodes>,<# Exhaust Nodes>,<# Return Nodes>
! <Controlled Zone Inlet>,<Inlet Node Count>,<Controlled Zone Name>,<Supply Air Inlet Node Name>,<SD Sys:Cooling/Heating [DD:Cooling] Inlet Node Name>,<DD Sys:Heating Inlet Node Name>
! <Controlled Zone Exhaust>,<Exhaust Node Count>,<Controlled Zone Name>,<Exhaust Air Node Name>
 Controlled Zone,THERMAL ZONE: AMEN_0300,THERMAL ZONE: AMEN_0300 EQUIPMENT,,THERMAL ZONE: AMEN_0300 ZONE AIR NODE,1,0,1
   Controlled Zone Inlet,1,THERMAL ZONE: AMEN_0300,THERMAL ZONE: AMEN_0300 IDEAL LOADS SUPPLY INLET,Undefined,N/A
   Controlled Zone Return,1,THERMAL ZONE: AMEN_0300,THERMAL ZONE: AMEN_0300 RETURN OUTLET
 Controlled Zone,THERMAL ZONE: AMEN_0400,THERMAL ZONE: AMEN_0400 EQUIPMENT,,THERMAL ZONE: AMEN_0400 ZONE AIR NODE,1,0,1
   Controlled Zone Inlet,1,THERMAL ZONE: AMEN_0400,THERMAL ZONE: AMEN_0400 IDEAL LOADS SUPPLY INLET,Undefined,N/A
   Controlled Zone Return,1,THERMAL ZONE: AMEN_0400,THERMAL ZONE: AMEN_0400 RETURN OUTLET
 Controlled Zone,THERMAL ZONE: AMEN_0501,THERMAL ZONE: AMEN_0501 EQUIPMENT,,THERMAL ZONE: AMEN_0501 ZONE AIR NODE,1,0,1
   Controlled Zone Inlet,1,THERMAL ZONE: AMEN_0501,THERMAL ZONE: AMEN_0501 IDEAL LOADS SUPPLY INLET,Undefined,N/A
   Controlled Zone Return,1,THERMAL ZONE: AMEN_0501,THERMAL ZONE: AMEN_0501 RETURN OUTLET
 Controlled Zone,THERMAL ZONE: AMEN_2100,THERMAL ZONE: AMEN_2100 EQUIPMENT,,THERMAL ZONE: AMEN_2100 ZONE AIR NODE,1,0,1
   Controlled Zone Inlet,1,THERMAL ZONE: AMEN_2100,THERMAL ZONE: AMEN_2100 IDEAL LOADS SUPPLY INLET,Undefined,N/A
   Controlled Zone Return,1,THERMAL ZONE: AMEN_2100,THERMAL ZONE: AMEN_2100 RETURN OUTLET
 Controlled Zone,THERMAL ZONE: AMEN_2200,THERMAL ZONE: AMEN_2200 EQUIPMENT,,THERMAL ZONE: AMEN_2200 ZONE AIR NODE,1,0,1
   Controlled Zone Inlet,1,THERMAL ZONE: AMEN_2200,THERMAL ZONE: AMEN_2200 IDEAL LOADS SUPPLY INLET,Undefined,N/A
   Controlled Zone Return,1,THERMAL ZONE: AMEN_2200,THERMAL ZONE: AMEN_2200 RETURN OUTLET
 Controlled Zone,THERMAL ZONE: AMEN_2300,THERMAL ZONE: AMEN_2300 EQUIPMENT,,THERMAL ZONE: AMEN_2300 ZONE AIR NODE,1,0,1
   Controlled Zone Inlet,1,THERMAL ZONE: AMEN_2300,THERMAL ZONE: AMEN_2300 IDEAL LOADS SUPPLY INLET,Undefined,N/A
   Controlled Zone Return,1,THERMAL ZONE: AMEN_2300,THERMAL ZONE: AMEN_2300 RETURN OUTLET
 Controlled Zone,THERMAL ZONE: BOH_0100,THERMAL ZONE: BOH_0100 EQUIPMENT,,THERMAL ZONE: BOH_0100 ZONE AIR NODE,1,0,1
   Controlled Zone Inlet,1,THERMAL ZONE: BOH_0100,THERMAL ZONE: BOH_0100 IDEAL LOADS SUPPLY INLET,Undefined,N/A
   Controlled Zone Return,1,THERMAL ZONE: BOH_0100,THERMAL ZONE: BOH_0100 RETURN OUTLET
 Controlled Zone,THERMAL ZONE: CORR_0100,THERMAL ZONE: CORR_0100 EQUIPMENT,,THERMAL ZONE: CORR_0100 ZONE AIR NODE,1,0,1
   Controlled Zone Inlet,1,THERMAL ZONE: CORR_0100,THERMAL ZONE: CORR_0100 IDEAL LOADS SUPPLY INLET,Undefined,N/A
   Controlled Zone Return,1,THERMAL ZONE: CORR_0100,THERMAL ZONE: CORR_0100 RETURN OUTLET
 Controlled Zone,THERMAL ZONE: CORR_0200,THERMAL ZONE: CORR_0200 EQUIPMENT,,THERMAL ZONE: CORR_0200 ZONE AIR NODE,1,0,1
   Controlled Zone Inlet,1,THERMAL ZONE: CORR_0200,THERMAL ZONE: CORR_0200 IDEAL LOADS SUPPLY INLET,Undefined,N/A
   Controlled Zone Return,1,THERMAL ZONE: CORR_0200,THERMAL ZONE: CORR_0200 RETURN OUTLET
 Controlled Zone,THERMAL ZONE: CORR_0300,THERMAL ZONE: CORR_0300 EQUIPMENT,,THERMAL ZONE: CORR_0300 ZONE AIR NODE,1,0,1
   Controlled Zone Inlet,1,THERMAL ZONE: CORR_0300,THERMAL ZONE: CORR_0300 IDEAL LOADS SUPPLY INLET,Undefined,N/A
   Controlled Zone Return,1,THERMAL ZONE: CORR_0300,THERMAL ZONE: CORR_0300 RETURN OUTLET
 Controlled Zone,THERMAL ZONE: CORR_0400,THERMAL ZONE: CORR_0400 EQUIPMENT,,THERMAL ZONE: CORR_0400 ZONE AIR NODE,1,0,1
   Controlled Zone Inlet,1,THERMAL ZONE: CORR_0400,THERMAL ZONE: CORR_0400 IDEAL LOADS SUPPLY INLET,Undefined,N/A
   Controlled Zone Return,1,THERMAL ZONE: CORR_0400,THERMAL ZONE: CORR_0400 RETURN OUTLET
 Controlled Zone,THERMAL ZONE: CORR_0500,THERMAL ZONE: CORR_0500 EQUIPMENT,,THERMAL ZONE: CORR_0500 ZONE AIR NODE,1,0,1
   Controlled Zone Inlet,1,THERMAL ZONE: CORR_0500,THERMAL ZONE: CORR_0500 IDEAL LOADS SUPPLY INLET,Undefined,N/A
   Controlled Zone Return,1,THERMAL ZONE: CORR_0500,THERMAL ZONE: CORR_0500 RETURN OUTLET
 Controlled Zone,THERMAL ZONE: CORR_2100,THERMAL ZONE: CORR_2100 EQUIPMENT,,THERMAL ZONE: CORR_2100 ZONE AIR NODE,1,0,1
   Controlled Zone Inlet,1,THERMAL ZONE: CORR_2100,THERMAL ZONE: CORR_2100 IDEAL LOADS SUPPLY INLET,Undefined,N/A
   Controlled Zone Return,1,THERMAL ZONE: CORR_2100,THERMAL ZONE: CORR_2100 RETURN OUTLET
 Controlled Zone,THERMAL ZONE: CORR_2300,THERMAL ZONE: CORR_2300 EQUIPMENT,,THERMAL ZONE: CORR_2300 ZONE AIR NODE,1,0,1
   Controlled Zone Inlet,1,THERMAL ZONE: CORR_2300,THERMAL ZONE: CORR_2300 IDEAL LOADS SUPPLY INLET,Undefined,N/A
   Controlled Zone Return,1,THERMAL ZONE: CORR_2300,THERMAL ZONE: CORR_2300 RETURN OUTLET
 Controlled Zone,THERMAL ZONE: CORR_2301,THERMAL ZONE: CORR_2301 EQUIPMENT,,THERMAL ZONE: CORR_2301 ZONE AIR NODE,1,0,1
   Controlled Zone Inlet,1,THERMAL ZONE: CORR_2301,THERMAL ZONE: CORR_2301 IDEAL LOADS SUPPLY INLET,Undefined,N/A
   Controlled Zone Return,1,THERMAL ZONE: CORR_2301,THERMAL ZONE: CORR_2301 RETURN OUTLET
 Controlled Zone,THERMAL ZONE: ELEC_0300,THERMAL ZONE: ELEC_0300 EQUIPMENT,,THERMAL ZONE: ELEC_0300 ZONE AIR NODE,1,0,1
   Controlled Zone Inlet,1,THERMAL ZONE: ELEC_0300,THERMAL ZONE: ELEC_0300 IDEAL LOADS SUPPLY INLET,Undefined,N/A
   Controlled Zone Return,1,THERMAL ZONE: ELEC_0300,THERMAL ZONE: ELEC_0300 RETURN OUTLET
 Controlled Zone,THERMAL ZONE: ELEC_0400,THERMAL ZONE: ELEC_0400 EQUIPMENT,,THERMAL ZONE: ELEC_0400 ZONE AIR NODE,1,0,1
   Controlled Zone Inlet,1,THERMAL ZONE: ELEC_0400,THERMAL ZONE: ELEC_0400 IDEAL LOADS SUPPLY INLET,Undefined,N/A
   Controlled Zone Return,1,THERMAL ZONE: ELEC_0400,THERMAL ZONE: ELEC_0400 RETURN OUTLET
 Controlled Zone,THERMAL ZONE: ELEV CONTROL_2301,THERMAL ZONE: ELEV CONTROL_2301 EQUIPMENT,,THERMAL ZONE: ELEV CONTROL_2301 ZONE AIR NODE,1,0,1
   Controlled Zone Inlet,1,THERMAL ZONE: ELEV CONTROL_2301,THERMAL ZONE: ELEV CONTROL_2301 IDEAL LOADS SUPPLY INLET,Undefined,N/A
   Controlled Zone Return,1,THERMAL ZONE: ELEV CONTROL_2301,THERMAL ZONE: ELEV CONTROL_2301 RETURN OUTLET
 Controlled Zone,THERMAL ZONE: ELEV CONTROL_2302,THERMAL ZONE: ELEV CONTROL_2302 EQUIPMENT,,THERMAL ZONE: ELEV CONTROL_2302 ZONE AIR NODE,1,0,1
   Controlled Zone Inlet,1,THERMAL ZONE: ELEV CONTROL_2302,THERMAL ZONE: ELEV CONTROL_2302 IDEAL LOADS SUPPLY INLET,Undefined,N/A
   Controlled Zone Return,1,THERMAL ZONE: ELEV CONTROL_2302,THERMAL ZONE: ELEV CONTROL_2302 RETURN OUTLET
 Controlled Zone,THERMAL ZONE: ELEV LOBBY_2300,THERMAL ZONE: ELEV LOBBY_2300 EQUIPMENT,,THERMAL ZONE: ELEV LOBBY_2300 ZONE AIR NODE,1,0,1
   Controlled Zone Inlet,1,THERMAL ZONE: ELEV LOBBY_2300,THERMAL ZONE: ELEV LOBBY_2300 IDEAL LOADS SUPPLY INLET,Undefined,N/A
   Controlled Zone Return,1,THERMAL ZONE: ELEV LOBBY_2300,THERMAL ZONE: ELEV LOBBY_2300 RETURN OUTLET
 Controlled Zone,THERMAL ZONE: ELEV LOBBY_P101,THERMAL ZONE: ELEV LOBBY_P101 EQUIPMENT,,THERMAL ZONE: ELEV LOBBY_P101 ZONE AIR NODE,1,0,1
   Controlled Zone Inlet,1,THERMAL ZONE: ELEV LOBBY_P101,THERMAL ZONE: ELEV LOBBY_P101 IDEAL LOADS SUPPLY INLET,Undefined,N/A
   Controlled Zone Return,1,THERMAL ZONE: ELEV LOBBY_P101,THERMAL ZONE: ELEV LOBBY_P101 RETURN OUTLET
 Controlled Zone,THERMAL ZONE: ELEV LOBBY_P200,THERMAL ZONE: ELEV LOBBY_P200 EQUIPMENT,,THERMAL ZONE: ELEV LOBBY_P200 ZONE AIR NODE,1,0,1
   Controlled Zone Inlet,1,THERMAL ZONE: ELEV LOBBY_P200,THERMAL ZONE: ELEV LOBBY_P200 IDEAL LOADS SUPPLY INLET,Undefined,N/A
   Controlled Zone Return,1,THERMAL ZONE: ELEV LOBBY_P200,THERMAL ZONE: ELEV LOBBY_P200 RETURN OUTLET
 Controlled Zone,THERMAL ZONE: ELEV_0101,THERMAL ZONE: ELEV_0101 EQUIPMENT,,THERMAL ZONE: ELEV_0101 ZONE AIR NODE,1,0,1
   Controlled Zone Inlet,1,THERMAL ZONE: ELEV_0101,THERMAL ZONE: ELEV_0101 IDEAL LOADS SUPPLY INLET,Undefined,N/A
   Controlled Zone Return,1,THERMAL ZONE: ELEV_0101,THERMAL ZONE: ELEV_0101 RETURN OUTLET
 Controlled Zone,THERMAL ZONE: ELEV_0102,THERMAL ZONE: ELEV_0102 EQUIPMENT,,THERMAL ZONE: ELEV_0102 ZONE AIR NODE,1,0,1
   Controlled Zone Inlet,1,THERMAL ZONE: ELEV_0102,THERMAL ZONE: ELEV_0102 IDEAL LOADS SUPPLY INLET,Undefined,N/A
   Controlled Zone Return,1,THERMAL ZONE: ELEV_0102,THERMAL ZONE: ELEV_0102 RETURN OUTLET
 Controlled Zone,THERMAL ZONE: ELEV_0201,THERMAL ZONE: ELEV_0201 EQUIPMENT,,THERMAL ZONE: ELEV_0201 ZONE AIR NODE,1,0,1
   Controlled Zone Inlet,1,THERMAL ZONE: ELEV_0201,THERMAL ZONE: ELEV_0201 IDEAL LOADS SUPPLY INLET,Undefined,N/A
   Controlled Zone Return,1,THERMAL ZONE: ELEV_0201,THERMAL ZONE: ELEV_0201 RETURN OUTLET
 Controlled Zone,THERMAL ZONE: ELEV_0202,THERMAL ZONE: ELEV_0202 EQUIPMENT,,THERMAL ZONE: ELEV_0202 ZONE AIR NODE,1,0,1
   Controlled Zone Inlet,1,THERMAL ZONE: ELEV_0202,THERMAL ZONE: ELEV_0202 IDEAL LOADS SUPPLY INLET,Undefined,N/A
   Controlled Zone Return,1,THERMAL ZONE: ELEV_0202,THERMAL ZONE: ELEV_0202 RETURN OUTLET
 Controlled Zone,THERMAL ZONE: ELEV_0301,THERMAL ZONE: ELEV_0301 EQUIPMENT,,THERMAL ZONE: ELEV_0301 ZONE AIR NODE,1,0,1
   Controlled Zone Inlet,1,THERMAL ZONE: ELEV_0301,THERMAL ZONE: ELEV_0301 IDEAL LOADS SUPPLY INLET,Undefined,N/A
   Controlled Zone Return,1,THERMAL ZONE: ELEV_0301,THERMAL ZONE: ELEV_0301 RETURN OUTLET
 Controlled Zone,THERMAL ZONE: ELEV_0302,THERMAL ZONE: ELEV_0302 EQUIPMENT,,THERMAL ZONE: ELEV_0302 ZONE AIR NODE,1,0,1
   Controlled Zone Inlet,1,THERMAL ZONE: ELEV_0302,THERMAL ZONE: ELEV_0302 IDEAL LOADS SUPPLY INLET,Undefined,N/A
   Controlled Zone Return,1,THERMAL ZONE: ELEV_0302,THERMAL ZONE: ELEV_0302 RETURN OUTLET
 Controlled Zone,THERMAL ZONE: ELEV_0401,THERMAL ZONE: ELEV_0401 EQUIPMENT,,THERMAL ZONE: ELEV_0401 ZONE AIR NODE,1,0,1
   Controlled Zone Inlet,1,THERMAL ZONE: ELEV_0401,THERMAL ZONE: ELEV_0401 IDEAL LOADS SUPPLY INLET,Undefined,N/A
   Controlled Zone Return,1,THERMAL ZONE: ELEV_0401,THERMAL ZONE: ELEV_0401 RETURN OUTLET
 Controlled Zone,THERMAL ZONE: ELEV_0402,THERMAL ZONE: ELEV_0402 EQUIPMENT,,THERMAL ZONE: ELEV_0402 ZONE AIR NODE,1,0,1
   Controlled Zone Inlet,1,THERMAL ZONE: ELEV_0402,THERMAL ZONE: ELEV_0402 IDEAL LOADS SUPPLY INLET,Undefined,N/A
   Controlled Zone Return,1,THERMAL ZONE: ELEV_0402,THERMAL ZONE: ELEV_0402 RETURN OUTLET
 Controlled Zone,THERMAL ZONE: ELEV_0501,THERMAL ZONE: ELEV_0501 EQUIPMENT,,THERMAL ZONE: ELEV_0501 ZONE AIR NODE,1,0,1
   Controlled Zone Inlet,1,THERMAL ZONE: ELEV_0501,THERMAL ZONE: ELEV_0501 IDEAL LOADS SUPPLY INLET,Undefined,N/A
   Controlled Zone Return,1,THERMAL ZONE: ELEV_0501,THERMAL ZONE: ELEV_0501 RETURN OUTLET
 Controlled Zone,THERMAL ZONE: ELEV_0502,THERMAL ZONE: ELEV_0502 EQUIPMENT,,THERMAL ZONE: ELEV_0502 ZONE AIR NODE,1,0,1
   Controlled Zone Inlet,1,THERMAL ZONE: ELEV_0502,THERMAL ZONE: ELEV_0502 IDEAL LOADS SUPPLY INLET,Undefined,N/A
   Controlled Zone Return,1,THERMAL ZONE: ELEV_0502,THERMAL ZONE: ELEV_0502 RETURN OUTLET
 Controlled Zone,THERMAL ZONE: ELEV_2101,THERMAL ZONE: ELEV_2101 EQUIPMENT,,THERMAL ZONE: ELEV_2101 ZONE AIR NODE,1,0,1
   Controlled Zone Inlet,1,THERMAL ZONE: ELEV_2101,THERMAL ZONE: ELEV_2101 IDEAL LOADS SUPPLY INLET,Undefined,N/A
   Controlled Zone Return,1,THERMAL ZONE: ELEV_2101,THERMAL ZONE: ELEV_2101 RETURN OUTLET
 Controlled Zone,THERMAL ZONE: ELEV_2102,THERMAL ZONE: ELEV_2102 EQUIPMENT,,THERMAL ZONE: ELEV_2102 ZONE AIR NODE,1,0,1
   Controlled Zone Inlet,1,THERMAL ZONE: ELEV_2102,THERMAL ZONE: ELEV_2102 IDEAL LOADS SUPPLY INLET,Undefined,N/A
   Controlled Zone Return,1,THERMAL ZONE: ELEV_2102,THERMAL ZONE: ELEV_2102 RETURN OUTLET
 Controlled Zone,THERMAL ZONE: ELEV_2301,THERMAL ZONE: ELEV_2301 EQUIPMENT,,THERMAL ZONE: ELEV_2301 ZONE AIR NODE,1,0,1
   Controlled Zone Inlet,1,THERMAL ZONE: ELEV_2301,THERMAL ZONE: ELEV_2301 IDEAL LOADS SUPPLY INLET,Undefined,N/A
   Controlled Zone Return,1,THERMAL ZONE: ELEV_2301,THERMAL ZONE: ELEV_2301 RETURN OUTLET
 Controlled Zone,THERMAL ZONE: ELEV_2302,THERMAL ZONE: ELEV_2302 EQUIPMENT,,THERMAL ZONE: ELEV_2302 ZONE AIR NODE,1,0,1
   Controlled Zone Inlet,1,THERMAL ZONE: ELEV_2302,THERMAL ZONE: ELEV_2302 IDEAL LOADS SUPPLY INLET,Undefined,N/A
   Controlled Zone Return,1,THERMAL ZONE: ELEV_2302,THERMAL ZONE: ELEV_2302 RETURN OUTLET
 Controlled Zone,THERMAL ZONE: ELEV_2303,THERMAL ZONE: ELEV_2303 EQUIPMENT,,THERMAL ZONE: ELEV_2303 ZONE AIR NODE,1,0,1
   Controlled Zone Inlet,1,THERMAL ZONE: ELEV_2303,THERMAL ZONE: ELEV_2303 IDEAL LOADS SUPPLY INLET,Undefined,N/A
   Controlled Zone Return,1,THERMAL ZONE: ELEV_2303,THERMAL ZONE: ELEV_2303 RETURN OUTLET
 Controlled Zone,THERMAL ZONE: ELEV_2304,THERMAL ZONE: ELEV_2304 EQUIPMENT,,THERMAL ZONE: ELEV_2304 ZONE AIR NODE,1,0,1
   Controlled Zone Inlet,1,THERMAL ZONE: ELEV_2304,THERMAL ZONE: ELEV_2304 IDEAL LOADS SUPPLY INLET,Undefined,N/A
   Controlled Zone Return,1,THERMAL ZONE: ELEV_2304,THERMAL ZONE: ELEV_2304 RETURN OUTLET
 Controlled Zone,THERMAL ZONE: ELEV_P101,THERMAL ZONE: ELEV_P101 EQUIPMENT,,THERMAL ZONE: ELEV_P101 ZONE AIR NODE,1,0,1
   Controlled Zone Inlet,1,THERMAL ZONE: ELEV_P101,THERMAL ZONE: ELEV_P101 IDEAL LOADS SUPPLY INLET,Undefined,N/A
   Controlled Zone Return,1,THERMAL ZONE: ELEV_P101,THERMAL ZONE: ELEV_P101 RETURN OUTLET
 Controlled Zone,THERMAL ZONE: ELEV_P102,THERMAL ZONE: ELEV_P102 EQUIPMENT,,THERMAL ZONE: ELEV_P102 ZONE AIR NODE,1,0,1
   Controlled Zone Inlet,1,THERMAL ZONE: ELEV_P102,THERMAL ZONE: ELEV_P102 IDEAL LOADS SUPPLY INLET,Undefined,N/A
   Controlled Zone Return,1,THERMAL ZONE: ELEV_P102,THERMAL ZONE: ELEV_P102 RETURN OUTLET
 Controlled Zone,THERMAL ZONE: ELEV_P201,THERMAL ZONE: ELEV_P201 EQUIPMENT,,THERMAL ZONE: ELEV_P201 ZONE AIR NODE,1,0,1
   Controlled Zone Inlet,1,THERMAL ZONE: ELEV_P201,THERMAL ZONE: ELEV_P201 IDEAL LOADS SUPPLY INLET,Undefined,N/A
   Controlled Zone Return,1,THERMAL ZONE: ELEV_P201,THERMAL ZONE: ELEV_P201 RETURN OUTLET
 Controlled Zone,THERMAL ZONE: ELEV_P202,THERMAL ZONE: ELEV_P202 EQUIPMENT,,THERMAL ZONE: ELEV_P202 ZONE AIR NODE,1,0,1
   Controlled Zone Inlet,1,THERMAL ZONE: ELEV_P202,THERMAL ZONE: ELEV_P202 IDEAL LOADS SUPPLY INLET,Undefined,N/A
   Controlled Zone Return,1,THERMAL ZONE: ELEV_P202,THERMAL ZONE: ELEV_P202 RETURN OUTLET
 Controlled Zone,THERMAL ZONE: FCC_0100,THERMAL ZONE: FCC_0100 EQUIPMENT,,THERMAL ZONE: FCC_0100 ZONE AIR NODE,1,0,1
   Controlled Zone Inlet,1,THERMAL ZONE: FCC_0100,THERMAL ZONE: FCC_0100 IDEAL LOADS SUPPLY INLET,Undefined,N/A
   Controlled Zone Return,1,THERMAL ZONE: FCC_0100,THERMAL ZONE: FCC_0100 RETURN OUTLET
 Controlled Zone,THERMAL ZONE: FITNESS_2200,THERMAL ZONE: FITNESS_2200 EQUIPMENT,,THERMAL ZONE: FITNESS_2200 ZONE AIR NODE,1,0,1
   Controlled Zone Inlet,1,THERMAL ZONE: FITNESS_2200,THERMAL ZONE: FITNESS_2200 IDEAL LOADS SUPPLY INLET,Undefined,N/A
   Controlled Zone Return,1,THERMAL ZONE: FITNESS_2200,THERMAL ZONE: FITNESS_2200 RETURN OUTLET
 Controlled Zone,THERMAL ZONE: LEASING_0100,THERMAL ZONE: LEASING_0100 EQUIPMENT,,THERMAL ZONE: LEASING_0100 ZONE AIR NODE,1,0,1
   Controlled Zone Inlet,1,THERMAL ZONE: LEASING_0100,THERMAL ZONE: LEASING_0100 IDEAL LOADS SUPPLY INLET,Undefined,N/A
[...]
 Non-Parent Node Connection,THERMAL ZONE: STAIR_0201 IDEAL LOADS SUPPLY INLET,ZONEHVAC:IDEALLOADSAIRSYSTEM,THERMAL ZONE: STAIR_0201 IDEAL LOADS AIR SYSTEM,Outlet,1
 Non-Parent Node Connection,THERMAL ZONE: STAIR_0202 IDEAL LOADS SUPPLY INLET,ZONEHVAC:IDEALLOADSAIRSYSTEM,THERMAL ZONE: STAIR_0202 IDEAL LOADS AIR SYSTEM,Outlet,1
 Non-Parent Node Connection,THERMAL ZONE: STAIR_0301 IDEAL LOADS SUPPLY INLET,ZONEHVAC:IDEALLOADSAIRSYSTEM,THERMAL ZONE: STAIR_0301 IDEAL LOADS AIR SYSTEM,Outlet,1
 Non-Parent Node Connection,THERMAL ZONE: STAIR_0302 IDEAL LOADS SUPPLY INLET,ZONEHVAC:IDEALLOADSAIRSYSTEM,THERMAL ZONE: STAIR_0302 IDEAL LOADS AIR SYSTEM,Outlet,1
 Non-Parent Node Connection,THERMAL ZONE: STAIR_0401 IDEAL LOADS SUPPLY INLET,ZONEHVAC:IDEALLOADSAIRSYSTEM,THERMAL ZONE: STAIR_0401 IDEAL LOADS AIR SYSTEM,Outlet,1
 Non-Parent Node Connection,THERMAL ZONE: STAIR_0402 IDEAL LOADS SUPPLY INLET,ZONEHVAC:IDEALLOADSAIRSYSTEM,THERMAL ZONE: STAIR_0402 IDEAL LOADS AIR SYSTEM,Outlet,1
 Non-Parent Node Connection,THERMAL ZONE: STAIR_0501 IDEAL LOADS SUPPLY INLET,ZONEHVAC:IDEALLOADSAIRSYSTEM,THERMAL ZONE: STAIR_0501 IDEAL LOADS AIR SYSTEM,Outlet,1
 Non-Parent Node Connection,THERMAL ZONE: STAIR_0502 IDEAL LOADS SUPPLY INLET,ZONEHVAC:IDEALLOADSAIRSYSTEM,THERMAL ZONE: STAIR_0502 IDEAL LOADS AIR SYSTEM,Outlet,1
 Non-Parent Node Connection,THERMAL ZONE: STAIR_2101 IDEAL LOADS SUPPLY INLET,ZONEHVAC:IDEALLOADSAIRSYSTEM,THERMAL ZONE: STAIR_2101 IDEAL LOADS AIR SYSTEM,Outlet,1
 Non-Parent Node Connection,THERMAL ZONE: STAIR_2102 IDEAL LOADS SUPPLY INLET,ZONEHVAC:IDEALLOADSAIRSYSTEM,THERMAL ZONE: STAIR_2102 IDEAL LOADS AIR SYSTEM,Outlet,1
 Non-Parent Node Connection,THERMAL ZONE: STAIR_2201 IDEAL LOADS SUPPLY INLET,ZONEHVAC:IDEALLOADSAIRSYSTEM,THERMAL ZONE: STAIR_2201 IDEAL LOADS AIR SYSTEM,Outlet,1
 Non-Parent Node Connection,THERMAL ZONE: STAIR_2202 IDEAL LOADS SUPPLY INLET,ZONEHVAC:IDEALLOADSAIRSYSTEM,THERMAL ZONE: STAIR_2202 IDEAL LOADS AIR SYSTEM,Outlet,1
 Non-Parent Node Connection,THERMAL ZONE: STAIR_2301 IDEAL LOADS SUPPLY INLET,ZONEHVAC:IDEALLOADSAIRSYSTEM,THERMAL ZONE: STAIR_2301 IDEAL LOADS AIR SYSTEM,Outlet,1
 Non-Parent Node Connection,THERMAL ZONE: STAIR_2302 IDEAL LOADS SUPPLY INLET,ZONEHVAC:IDEALLOADSAIRSYSTEM,THERMAL ZONE: STAIR_2302 IDEAL LOADS AIR SYSTEM,Outlet,1
 Non-Parent Node Connection,THERMAL ZONE: STAIR_P101 IDEAL LOADS SUPPLY INLET,ZONEHVAC:IDEALLOADSAIRSYSTEM,THERMAL ZONE: STAIR_P101 IDEAL LOADS AIR SYSTEM,Outlet,1
 Non-Parent Node Connection,THERMAL ZONE: STAIR_P102 IDEAL LOADS SUPPLY INLET,ZONEHVAC:IDEALLOADSAIRSYSTEM,THERMAL ZONE: STAIR_P102 IDEAL LOADS AIR SYSTEM,Outlet,1
 Non-Parent Node Connection,THERMAL ZONE: STAIR_P201 IDEAL LOADS SUPPLY INLET,ZONEHVAC:IDEALLOADSAIRSYSTEM,THERMAL ZONE: STAIR_P201 IDEAL LOADS AIR SYSTEM,Outlet,1
 Non-Parent Node Connection,THERMAL ZONE: STAIR_P202 IDEAL LOADS SUPPLY INLET,ZONEHVAC:IDEALLOADSAIRSYSTEM,THERMAL ZONE: STAIR_P202 IDEAL LOADS AIR SYSTEM,Outlet,1
 Non-Parent Node Connection,THERMAL ZONE: STOR_0100 IDEAL LOADS SUPPLY INLET,ZONEHVAC:IDEALLOADSAIRSYSTEM,THERMAL ZONE: STOR_0100 IDEAL LOADS AIR SYSTEM,Outlet,1
 Non-Parent Node Connection,THERMAL ZONE: STOR_0200 IDEAL LOADS SUPPLY INLET,ZONEHVAC:IDEALLOADSAIRSYSTEM,THERMAL ZONE: STOR_0200 IDEAL LOADS AIR SYSTEM,Outlet,1
 Non-Parent Node Connection,THERMAL ZONE: STOR_0300 IDEAL LOADS SUPPLY INLET,ZONEHVAC:IDEALLOADSAIRSYSTEM,THERMAL ZONE: STOR_0300 IDEAL LOADS AIR SYSTEM,Outlet,1
 Non-Parent Node Connection,THERMAL ZONE: STOR_0400 IDEAL LOADS SUPPLY INLET,ZONEHVAC:IDEALLOADSAIRSYSTEM,THERMAL ZONE: STOR_0400 IDEAL LOADS AIR SYSTEM,Outlet,1
 Non-Parent Node Connection,THERMAL ZONE: STOR_0500 IDEAL LOADS SUPPLY INLET,ZONEHVAC:IDEALLOADSAIRSYSTEM,THERMAL ZONE: STOR_0500 IDEAL LOADS AIR SYSTEM,Outlet,1
 Non-Parent Node Connection,THERMAL ZONE: STOR_2100 IDEAL LOADS SUPPLY INLET,ZONEHVAC:IDEALLOADSAIRSYSTEM,THERMAL ZONE: STOR_2100 IDEAL LOADS AIR SYSTEM,Outlet,1
 Non-Parent Node Connection,THERMAL ZONE: STOR_P100 IDEAL LOADS SUPPLY INLET,ZONEHVAC:IDEALLOADSAIRSYSTEM,THERMAL ZONE: STOR_P100 IDEAL LOADS AIR SYSTEM,Outlet,1
 Non-Parent Node Connection,THERMAL ZONE: STOR_P200 IDEAL LOADS SUPPLY INLET,ZONEHVAC:IDEALLOADSAIRSYSTEM,THERMAL ZONE: STOR_P200 IDEAL LOADS AIR SYSTEM,Outlet,1
 Non-Parent Node Connection,THERMAL ZONE: TRASH_0200 IDEAL LOADS SUPPLY INLET,ZONEHVAC:IDEALLOADSAIRSYSTEM,THERMAL ZONE: TRASH_0200 IDEAL LOADS AIR SYSTEM,Outlet,1
 Non-Parent Node Connection,THERMAL ZONE: TRASH_0300 IDEAL LOADS SUPPLY INLET,ZONEHVAC:IDEALLOADSAIRSYSTEM,THERMAL ZONE: TRASH_0300 IDEAL LOADS AIR SYSTEM,Outlet,1
 Non-Parent Node Connection,THERMAL ZONE: TRASH_0400 IDEAL LOADS SUPPLY INLET,ZONEHVAC:IDEALLOADSAIRSYSTEM,THERMAL ZONE: TRASH_0400 IDEAL LOADS AIR SYSTEM,Outlet,1
 Non-Parent Node Connection,THERMAL ZONE: TRASH_0500 IDEAL LOADS SUPPLY INLET,ZONEHVAC:IDEALLOADSAIRSYSTEM,THERMAL ZONE: TRASH_0500 IDEAL LOADS AIR SYSTEM,Outlet,1
 Non-Parent Node Connection,THERMAL ZONE: TRASH_2100 IDEAL LOADS SUPPLY INLET,ZONEHVAC:IDEALLOADSAIRSYSTEM,THERMAL ZONE: TRASH_2100 IDEAL LOADS AIR SYSTEM,Outlet,1
 Non-Parent Node Connection,THERMAL ZONE: TRASH_2200 IDEAL LOADS SUPPLY INLET,ZONEHVAC:IDEALLOADSAIRSYSTEM,THERMAL ZONE: TRASH_2200 IDEAL LOADS AIR SYSTEM,Outlet,1
 Non-Parent Node Connection,THERMAL ZONE: UNIT_0201_4B IDEAL LOADS SUPPLY INLET,ZONEHVAC:IDEALLOADSAIRSYSTEM,THERMAL ZONE: UNIT_0201_4B IDEAL LOADS AIR SYSTEM,Outlet,1
 Non-Parent Node Connection,THERMAL ZONE: UNIT_0202 IDEAL LOADS SUPPLY INLET,ZONEHVAC:IDEALLOADSAIRSYSTEM,THERMAL ZONE: UNIT_0202 IDEAL LOADS AIR SYSTEM,Outlet,1
 Non-Parent Node Connection,THERMAL ZONE: UNIT_0203 IDEAL LOADS SUPPLY INLET,ZONEHVAC:IDEALLOADSAIRSYSTEM,THERMAL ZONE: UNIT_0203 IDEAL LOADS AIR SYSTEM,Outlet,1
 Non-Parent Node Connection,THERMAL ZONE: UNIT_0204 IDEAL LOADS SUPPLY INLET,ZONEHVAC:IDEALLOADSAIRSYSTEM,THERMAL ZONE: UNIT_0204 IDEAL LOADS AIR SYSTEM,Outlet,1
 Non-Parent Node Connection,THERMAL ZONE: UNIT_0205 IDEAL LOADS SUPPLY INLET,ZONEHVAC:IDEALLOADSAIRSYSTEM,THERMAL ZONE: UNIT_0205 IDEAL LOADS AIR SYSTEM,Outlet,1
 Non-Parent Node Connection,THERMAL ZONE: UNIT_0206 IDEAL LOADS SUPPLY INLET,ZONEHVAC:IDEALLOADSAIRSYSTEM,THERMAL ZONE: UNIT_0206 IDEAL LOADS AIR SYSTEM,Outlet,1
 Non-Parent Node Connection,THERMAL ZONE: UNIT_0207 IDEAL LOADS SUPPLY INLET,ZONEHVAC:IDEALLOADSAIRSYSTEM,THERMAL ZONE: UNIT_0207 IDEAL LOADS AIR SYSTEM,Outlet,1
 Non-Parent Node Connection,THERMAL ZONE: UNIT_0208 IDEAL LOADS SUPPLY INLET,ZONEHVAC:IDEALLOADSAIRSYSTEM,THERMAL ZONE: UNIT_0208 IDEAL LOADS AIR SYSTEM,Outlet,1
 Non-Parent Node Connection,THERMAL ZONE: UNIT_0209_3B IDEAL LOADS SUPPLY INLET,ZONEHVAC:IDEALLOADSAIRSYSTEM,THERMAL ZONE: UNIT_0209_3B IDEAL LOADS AIR SYSTEM,Outlet,1
 Non-Parent Node Connection,THERMAL ZONE: UNIT_0210 IDEAL LOADS SUPPLY INLET,ZONEHVAC:IDEALLOADSAIRSYSTEM,THERMAL ZONE: UNIT_0210 IDEAL LOADS AIR SYSTEM,Outlet,1
 Non-Parent Node Connection,THERMAL ZONE: UNIT_0211_2B IDEAL LOADS SUPPLY INLET,ZONEHVAC:IDEALLOADSAIRSYSTEM,THERMAL ZONE: UNIT_0211_2B IDEAL LOADS AIR SYSTEM,Outlet,1
 Non-Parent Node Connection,THERMAL ZONE: UNIT_0212 IDEAL LOADS SUPPLY INLET,ZONEHVAC:IDEALLOADSAIRSYSTEM,THERMAL ZONE: UNIT_0212 IDEAL LOADS AIR SYSTEM,Outlet,1
 Non-Parent Node Connection,THERMAL ZONE: UNIT_0213 IDEAL LOADS SUPPLY INLET,ZONEHVAC:IDEALLOADSAIRSYSTEM,THERMAL ZONE: UNIT_0213 IDEAL LOADS AIR SYSTEM,Outlet,1
 Non-Parent Node Connection,THERMAL ZONE: UNIT_0214 IDEAL LOADS SUPPLY INLET,ZONEHVAC:IDEALLOADSAIRSYSTEM,THERMAL ZONE: UNIT_0214 IDEAL LOADS AIR SYSTEM,Outlet,1
 Non-Parent Node Connection,THERMAL ZONE: UNIT_0215 IDEAL LOADS SUPPLY INLET,ZONEHVAC:IDEALLOADSAIRSYSTEM,THERMAL ZONE: UNIT_0215 IDEAL LOADS AIR SYSTEM,Outlet,1
 Non-Parent Node Connection,THERMAL ZONE: UNIT_0216 IDEAL LOADS SUPPLY INLET,ZONEHVAC:IDEALLOADSAIRSYSTEM,THERMAL ZONE: UNIT_0216 IDEAL LOADS AIR SYSTEM,Outlet,1
 Non-Parent Node Connection,THERMAL ZONE: UNIT_0217 IDEAL LOADS SUPPLY INLET,ZONEHVAC:IDEALLOADSAIRSYSTEM,THERMAL ZONE: UNIT_0217 IDEAL LOADS AIR SYSTEM,Outlet,1
 Non-Parent Node Connection,THERMAL ZONE: UNIT_0218 IDEAL LOADS SUPPLY INLET,ZONEHVAC:IDEALLOADSAIRSYSTEM,THERMAL ZONE: UNIT_0218 IDEAL LOADS AIR SYSTEM,Outlet,1
 Non-Parent Node Connection,THERMAL ZONE: UNIT_0219_4B IDEAL LOADS SUPPLY INLET,ZONEHVAC:IDEALLOADSAIRSYSTEM,THERMAL ZONE: UNIT_0219_4B IDEAL LOADS AIR SYSTEM,Outlet,1
 Non-Parent Node Connection,THERMAL ZONE: UNIT_0301_4B IDEAL LOADS SUPPLY INLET,ZONEHVAC:IDEALLOADSAIRSYSTEM,THERMAL ZONE: UNIT_0301_4B IDEAL LOADS AIR SYSTEM,Outlet,1
 Non-Parent Node Connection,THERMAL ZONE: UNIT_0302 IDEAL LOADS SUPPLY INLET,ZONEHVAC:IDEALLOADSAIRSYSTEM,THERMAL ZONE: UNIT_0302 IDEAL LOADS AIR SYSTEM,Outlet,1
 Non-Parent Node Connection,THERMAL ZONE: UNIT_0303 IDEAL LOADS SUPPLY INLET,ZONEHVAC:IDEALLOADSAIRSYSTEM,THERMAL ZONE: UNIT_0303 IDEAL LOADS AIR SYSTEM,Outlet,1
 Non-Parent Node Connection,THERMAL ZONE: UNIT_0304 IDEAL LOADS SUPPLY INLET,ZONEHVAC:IDEALLOADSAIRSYSTEM,THERMAL ZONE: UNIT_0304 IDEAL LOADS AIR SYSTEM,Outlet,1
 Non-Parent Node Connection,THERMAL ZONE: UNIT_0305 IDEAL LOADS SUPPLY INLET,ZONEHVAC:IDEALLOADSAIRSYSTEM,THERMAL ZONE: UNIT_0305 IDEAL LOADS AIR SYSTEM,Outlet,1
 Non-Parent Node Connection,THERMAL ZONE: UNIT_0306 IDEAL LOADS SUPPLY INLET,ZONEHVAC:IDEALLOADSAIRSYSTEM,THERMAL ZONE: UNIT_0306 IDEAL LOADS AIR SYSTEM,Outlet,1
 Non-Parent Node Connection,THERMAL ZONE: UNIT_0307_3B IDEAL LOADS SUPPLY INLET,ZONEHVAC:IDEALLOADSAIRSYSTEM,THERMAL ZONE: UNIT_0307_3B IDEAL LOADS AIR SYSTEM,Outlet,1
 Non-Parent Node Connection,THERMAL ZONE: UNIT_0308 IDEAL LOADS SUPPLY INLET,ZONEHVAC:IDEALLOADSAIRSYSTEM,THERMAL ZONE: UNIT_0308 IDEAL LOADS AIR SYSTEM,Outlet,1
 Non-Parent Node Connection,THERMAL ZONE: UNIT_0309_2B IDEAL LOADS SUPPLY INLET,ZONEHVAC:IDEALLOADSAIRSYSTEM,THERMAL ZONE: UNIT_0309_2B IDEAL LOADS AIR SYSTEM,Outlet,1
 Non-Parent Node Connection,THERMAL ZONE: UNIT_0310 IDEAL LOADS SUPPLY INLET,ZONEHVAC:IDEALLOADSAIRSYSTEM,THERMAL ZONE: UNIT_0310 IDEAL LOADS AIR SYSTEM,Outlet,1
 Non-Parent Node Connection,THERMAL ZONE: UNIT_0311 IDEAL LOADS SUPPLY INLET,ZONEHVAC:IDEALLOADSAIRSYSTEM,THERMAL ZONE: UNIT_0311 IDEAL LOADS AIR SYSTEM,Outlet,1
 Non-Parent Node Connection,THERMAL ZONE: UNIT_0312 IDEAL LOADS SUPPLY INLET,ZONEHVAC:IDEALLOADSAIRSYSTEM,THERMAL ZONE: UNIT_0312 IDEAL LOADS AIR SYSTEM,Outlet,1
 Non-Parent Node Connection,THERMAL ZONE: UNIT_0313 IDEAL LOADS SUPPLY INLET,ZONEHVAC:IDEALLOADSAIRSYSTEM,THERMAL ZONE: UNIT_0313 IDEAL LOADS AIR SYSTEM,Outlet,1
 Non-Parent Node Connection,THERMAL ZONE: UNIT_0314 IDEAL LOADS SUPPLY INLET,ZONEHVAC:IDEALLOADSAIRSYSTEM,THERMAL ZONE: UNIT_0314 IDEAL LOADS AIR SYSTEM,Outlet,1
 Non-Parent Node Connection,THERMAL ZONE: UNIT_0315 IDEAL LOADS SUPPLY INLET,ZONEHVAC:IDEALLOADSAIRSYSTEM,THERMAL ZONE: UNIT_0315 IDEAL LOADS AIR SYSTEM,Outlet,1
 Non-Parent Node Connection,THERMAL ZONE: UNIT_0316 IDEAL LOADS SUPPLY INLET,ZONEHVAC:IDEALLOADSAIRSYSTEM,THERMAL ZONE: UNIT_0316 IDEAL LOADS AIR SYSTEM,Outlet,1
 Non-Parent Node Connection,THERMAL ZONE: UNIT_0317_4B IDEAL LOADS SUPPLY INLET,ZONEHVAC:IDEALLOADSAIRSYSTEM,THERMAL ZONE: UNIT_0317_4B IDEAL LOADS AIR SYSTEM,Outlet,1
 Non-Parent Node Connection,THERMAL ZONE: UNIT_0401_4B IDEAL LOADS SUPPLY INLET,ZONEHVAC:IDEALLOADSAIRSYSTEM,THERMAL ZONE: UNIT_0401_4B IDEAL LOADS AIR SYSTEM,Outlet,1
 Non-Parent Node Connection,THERMAL ZONE: UNIT_0402 IDEAL LOADS SUPPLY INLET,ZONEHVAC:IDEALLOADSAIRSYSTEM,THERMAL ZONE: UNIT_0402 IDEAL LOADS AIR SYSTEM,Outlet,1
 Non-Parent Node Connection,THERMAL ZONE: UNIT_0403 IDEAL LOADS SUPPLY INLET,ZONEHVAC:IDEALLOADSAIRSYSTEM,THERMAL ZONE: UNIT_0403 IDEAL LOADS AIR SYSTEM,Outlet,1
 Non-Parent Node Connection,THERMAL ZONE: UNIT_0404 IDEAL LOADS SUPPLY INLET,ZONEHVAC:IDEALLOADSAIRSYSTEM,THERMAL ZONE: UNIT_0404 IDEAL LOADS AIR SYSTEM,Outlet,1
 Non-Parent Node Connection,THERMAL ZONE: UNIT_0405 IDEAL LOADS SUPPLY INLET,ZONEHVAC:IDEALLOADSAIRSYSTEM,THERMAL ZONE: UNIT_0405 IDEAL LOADS AIR SYSTEM,Outlet,1
 Non-Parent Node Connection,THERMAL ZONE: UNIT_0406 IDEAL LOADS SUPPLY INLET,ZONEHVAC:IDEALLOADSAIRSYSTEM,THERMAL ZONE: UNIT_0406 IDEAL LOADS AIR SYSTEM,Outlet,1
 Non-Parent Node Connection,THERMAL ZONE: UNIT_0407_3B IDEAL LOADS SUPPLY INLET,ZONEHVAC:IDEALLOADSAIRSYSTEM,THERMAL ZONE: UNIT_0407_3B IDEAL LOADS AIR SYSTEM,Outlet,1
 Non-Parent Node Connection,THERMAL ZONE: UNIT_0408 IDEAL LOADS SUPPLY INLET,ZONEHVAC:IDEALLOADSAIRSYSTEM,THERMAL ZONE: UNIT_0408 IDEAL LOADS AIR SYSTEM,Outlet,1
 Non-Parent Node Connection,THERMAL ZONE: UNIT_0409_2B IDEAL LOADS SUPPLY INLET,ZONEHVAC:IDEALLOADSAIRSYSTEM,THERMAL ZONE: UNIT_0409_2B IDEAL LOADS AIR SYSTEM,Outlet,1
 Non-Parent Node Connection,THERMAL ZONE: UNIT_0410 IDEAL LOADS SUPPLY INLET,ZONEHVAC:IDEALLOADSAIRSYSTEM,THERMAL ZONE: UNIT_0410 IDEAL LOADS AIR SYSTEM,Outlet,1
 Non-Parent Node Connection,THERMAL ZONE: UNIT_0411 IDEAL LOADS SUPPLY INLET,ZONEHVAC:IDEALLOADSAIRSYSTEM,THERMAL ZONE: UNIT_0411 IDEAL LOADS AIR SYSTEM,Outlet,1
 Non-Parent Node Connection,THERMAL ZONE: UNIT_0412 IDEAL LOADS SUPPLY INLET,ZONEHVAC:IDEALLOADSAIRSYSTEM,THERMAL ZONE: UNIT_0412 IDEAL LOADS AIR SYSTEM,Outlet,1
 Non-Parent Node Connection,THERMAL ZONE: UNIT_0413 IDEAL LOADS SUPPLY INLET,ZONEHVAC:IDEALLOADSAIRSYSTEM,THERMAL ZONE: UNIT_0413 IDEAL LOADS AIR SYSTEM,Outlet,1
 Non-Parent Node Connection,THERMAL ZONE: UNIT_0414 IDEAL LOADS SUPPLY INLET,ZONEHVAC:IDEALLOADSAIRSYSTEM,THERMAL ZONE: UNIT_0414 IDEAL LOADS AIR SYSTEM,Outlet,1
 Non-Parent Node Connection,THERMAL ZONE: UNIT_0415 IDEAL LOADS SUPPLY INLET,ZONEHVAC:IDEALLOADSAIRSYSTEM,THERMAL ZONE: UNIT_0415 IDEAL LOADS AIR SYSTEM,Outlet,1
 Non-Parent Node Connection,THERMAL ZONE: UNIT_0416 IDEAL LOADS SUPPLY INLET,ZONEHVAC:IDEALLOADSAIRSYSTEM,THERMAL ZONE: UNIT_0416 IDEAL LOADS AIR SYSTEM,Outlet,1
 Non-Parent Node Connection,THERMAL ZONE: UNIT_0417_4B IDEAL LOADS SUPPLY INLET,ZONEHVAC:IDEALLOADSAIRSYSTEM,THERMAL ZONE: UNIT_0417_4B IDEAL LOADS AIR SYSTEM,Outlet,1
 Non-Parent Node Connection,THERMAL ZONE: UNIT_0501_4B IDEAL LOADS SUPPLY INLET,ZONEHVAC:IDEALLOADSAIRSYSTEM,THERMAL ZONE: UNIT_0501_4B IDEAL LOADS AIR SYSTEM,Outlet,1
 Non-Parent Node Connection,THERMAL ZONE: UNIT_0502 IDEAL LOADS SUPPLY INLET,ZONEHVAC:IDEALLOADSAIRSYSTEM,THERMAL ZONE: UNIT_0502 IDEAL LOADS AIR SYSTEM,Outlet,1
 Non-Parent Node Connection,THERMAL ZONE: UNIT_0503 IDEAL LOADS SUPPLY INLET,ZONEHVAC:IDEALLOADSAIRSYSTEM,THERMAL ZONE: UNIT_0503 IDEAL LOADS AIR SYSTEM,Outlet,1
 Non-Parent Node Connection,THERMAL ZONE: UNIT_0504 IDEAL LOADS SUPPLY INLET,ZONEHVAC:IDEALLOADSAIRSYSTEM,THERMAL ZONE: UNIT_0504 IDEAL LOADS AIR SYSTEM,Outlet,1
 Non-Parent Node Connection,THERMAL ZONE: UNIT_0505 IDEAL LOADS SUPPLY INLET,ZONEHVAC:IDEALLOADSAIRSYSTEM,THERMAL ZONE: UNIT_0505 IDEAL LOADS AIR SYSTEM,Outlet,1
 Non-Parent Node Connection,THERMAL ZONE: UNIT_0506 IDEAL LOADS SUPPLY INLET,ZONEHVAC:IDEALLOADSAIRSYSTEM,THERMAL ZONE: UNIT_0506 IDEAL LOADS AIR SYSTEM,Outlet,1
 Non-Parent Node Connection,THERMAL ZONE: UNIT_0507_3B IDEAL LOADS SUPPLY INLET,ZONEHVAC:IDEALLOADSAIRSYSTEM,THERMAL ZONE: UNIT_0507_3B IDEAL LOADS AIR SYSTEM,Outlet,1
 Non-Parent Node Connection,THERMAL ZONE: UNIT_0508 IDEAL LOADS SUPPLY INLET,ZONEHVAC:IDEALLOADSAIRSYSTEM,THERMAL ZONE: UNIT_0508 IDEAL LOADS AIR SYSTEM,Outlet,1
 Non-Parent Node Connection,THERMAL ZONE: UNIT_0509_2B IDEAL LOADS SUPPLY INLET,ZONEHVAC:IDEALLOADSAIRSYSTEM,THERMAL ZONE: UNIT_0509_2B IDEAL LOADS AIR SYSTEM,Outlet,1
 Non-Parent Node Connection,THERMAL ZONE: UNIT_0510 IDEAL LOADS SUPPLY INLET,ZONEHVAC:IDEALLOADSAIRSYSTEM,THERMAL ZONE: UNIT_0510 IDEAL LOADS AIR SYSTEM,Outlet,1
 Non-Parent Node Connection,THERMAL ZONE: UNIT_0511 IDEAL LOADS SUPPLY INLET,ZONEHVAC:IDEALLOADSAIRSYSTEM,THERMAL ZONE: UNIT_0511 IDEAL LOADS AIR SYSTEM,Outlet,1
 Non-Parent Node Connection,THERMAL ZONE: UNIT_0512 IDEAL LOADS SUPPLY INLET,ZONEHVAC:IDEALLOADSAIRSYSTEM,THERMAL ZONE: UNIT_0512 IDEAL LOADS AIR SYSTEM,Outlet,1
 Non-Parent Node Connection,THERMAL ZONE: UNIT_0513 IDEAL LOADS SUPPLY INLET,ZONEHVAC:IDEALLOADSAIRSYSTEM,THERMAL ZONE: UNIT_0513 IDEAL LOADS AIR SYSTEM,Outlet,1
 Non-Parent Node Connection,THERMAL ZONE: UNIT_0514 IDEAL LOADS SUPPLY INLET,ZONEHVAC:IDEALLOADSAIRSYSTEM,THERMAL ZONE: UNIT_0514 IDEAL LOADS AIR SYSTEM,Outlet,1
 Non-Parent Node Connection,THERMAL ZONE: UNIT_0515 IDEAL LOADS SUPPLY INLET,ZONEHVAC:IDEALLOADSAIRSYSTEM,THERMAL ZONE: UNIT_0515 IDEAL LOADS AIR SYSTEM,Outlet,1
 Non-Parent Node Connection,THERMAL ZONE: UNIT_0516 IDEAL LOADS SUPPLY INLET,ZONEHVAC:IDEALLOADSAIRSYSTEM,THERMAL ZONE: UNIT_0516 IDEAL LOADS AIR SYSTEM,Outlet,1
 Non-Parent Node Connection,THERMAL ZONE: UNIT_0517_4B IDEAL LOADS SUPPLY INLET,ZONEHVAC:IDEALLOADSAIRSYSTEM,THERMAL ZONE: UNIT_0517_4B IDEAL LOADS AIR SYSTEM,Outlet,1
 Non-Parent Node Connection,THERMAL ZONE: UNIT_2101_4B IDEAL LOADS SUPPLY INLET,ZONEHVAC:IDEALLOADSAIRSYSTEM,THERMAL ZONE: UNIT_2101_4B IDEAL LOADS AIR SYSTEM,Outlet,1
 Non-Parent Node Connection,THERMAL ZONE: UNIT_2102 IDEAL LOADS SUPPLY INLET,ZONEHVAC:IDEALLOADSAIRSYSTEM,THERMAL ZONE: UNIT_2102 IDEAL LOADS AIR SYSTEM,Outlet,1
 Non-Parent Node Connection,THERMAL ZONE: UNIT_2103 IDEAL LOADS SUPPLY INLET,ZONEHVAC:IDEALLOADSAIRSYSTEM,THERMAL ZONE: UNIT_2103 IDEAL LOADS AIR SYSTEM,Outlet,1
 Non-Parent Node Connection,THERMAL ZONE: UNIT_2104 IDEAL LOADS SUPPLY INLET,ZONEHVAC:IDEALLOADSAIRSYSTEM,THERMAL ZONE: UNIT_2104 IDEAL LOADS AIR SYSTEM,Outlet,1
 Non-Parent Node Connection,THERMAL ZONE: UNIT_2105 IDEAL LOADS SUPPLY INLET,ZONEHVAC:IDEALLOADSAIRSYSTEM,THERMAL ZONE: UNIT_2105 IDEAL LOADS AIR SYSTEM,Outlet,1
 Non-Parent Node Connection,THERMAL ZONE: UNIT_2106 IDEAL LOADS SUPPLY INLET,ZONEHVAC:IDEALLOADSAIRSYSTEM,THERMAL ZONE: UNIT_2106 IDEAL LOADS AIR SYSTEM,Outlet,1
 Non-Parent Node Connection,THERMAL ZONE: UNIT_2107_3B IDEAL LOADS SUPPLY INLET,ZONEHVAC:IDEALLOADSAIRSYSTEM,THERMAL ZONE: UNIT_2107_3B IDEAL LOADS AIR SYSTEM,Outlet,1
 Non-Parent Node Connection,THERMAL ZONE: UNIT_2108 IDEAL LOADS SUPPLY INLET,ZONEHVAC:IDEALLOADSAIRSYSTEM,THERMAL ZONE: UNIT_2108 IDEAL LOADS AIR SYSTEM,Outlet,1
 Non-Parent Node Connection,THERMAL ZONE: UNIT_2109_2B IDEAL LOADS SUPPLY INLET,ZONEHVAC:IDEALLOADSAIRSYSTEM,THERMAL ZONE: UNIT_2109_2B IDEAL LOADS AIR SYSTEM,Outlet,1
 Non-Parent Node Connection,THERMAL ZONE: UNIT_2110 IDEAL LOADS SUPPLY INLET,ZONEHVAC:IDEALLOADSAIRSYSTEM,THERMAL ZONE: UNIT_2110 IDEAL LOADS AIR SYSTEM,Outlet,1
 Non-Parent Node Connection,THERMAL ZONE: UNIT_2111 IDEAL LOADS SUPPLY INLET,ZONEHVAC:IDEALLOADSAIRSYSTEM,THERMAL ZONE: UNIT_2111 IDEAL LOADS AIR SYSTEM,Outlet,1
 Non-Parent Node Connection,THERMAL ZONE: UNIT_2112 IDEAL LOADS SUPPLY INLET,ZONEHVAC:IDEALLOADSAIRSYSTEM,THERMAL ZONE: UNIT_2112 IDEAL LOADS AIR SYSTEM,Outlet,1
 Non-Parent Node Connection,THERMAL ZONE: UNIT_2113 IDEAL LOADS SUPPLY INLET,ZONEHVAC:IDEALLOADSAIRSYSTEM,THERMAL ZONE: UNIT_2113 IDEAL LOADS AIR SYSTEM,Outlet,1
 Non-Parent Node Connection,THERMAL ZONE: UNIT_2114 IDEAL LOADS SUPPLY INLET,ZONEHVAC:IDEALLOADSAIRSYSTEM,THERMAL ZONE: UNIT_2114 IDEAL LOADS AIR SYSTEM,Outlet,1
 Non-Parent Node Connection,THERMAL ZONE: UNIT_2115 IDEAL LOADS SUPPLY INLET,ZONEHVAC:IDEALLOADSAIRSYSTEM,THERMAL ZONE: UNIT_2115 IDEAL LOADS AIR SYSTEM,Outlet,1
 Non-Parent Node Connection,THERMAL ZONE: UNIT_2116 IDEAL LOADS SUPPLY INLET,ZONEHVAC:IDEALLOADSAIRSYSTEM,THERMAL ZONE: UNIT_2116 IDEAL LOADS AIR SYSTEM,Outlet,1
 Non-Parent Node Connection,THERMAL ZONE: UNIT_2117_4B IDEAL LOADS SUPPLY INLET,ZONEHVAC:IDEALLOADSAIRSYSTEM,THERMAL ZONE: UNIT_2117_4B IDEAL LOADS AIR SYSTEM,Outlet,1
 Non-Parent Node Connection,THERMAL ZONE: XFMR_0201 IDEAL LOADS SUPPLY INLET,ZONEHVAC:IDEALLOADSAIRSYSTEM,THERMAL ZONE: XFMR_0201 IDEAL LOADS AIR SYSTEM,Outlet,1
 Non-Parent Node Connection,THERMAL ZONE: XFMR_0401 IDEAL LOADS SUPPLY INLET,ZONEHVAC:IDEALLOADSAIRSYSTEM,THERMAL ZONE: XFMR_0401 IDEAL LOADS AIR SYSTEM,Outlet,1
 Non-Parent Node Connection,DHW SUPPLY INLET NODE,PUMP:VARIABLESPEED,DHW SUPPLY PUMP,Inlet,1
 Non-Parent Node Connection,NODE 192,PUMP:VARIABLESPEED,DHW SUPPLY PUMP,Outlet,1
