Program Version,EnergyPlus, Version 9.3.0-baff08990c, YMD=2020.05.18 16:46
! <Version>, Version ID
 Version, 9.3
! <Timesteps per Hour>, #TimeSteps, Minutes per TimeStep {minutes}
 Timesteps per Hour,  1, 60
! <System Convergence Limits>, Minimum System TimeStep {minutes}, Max HVAC Iterations, Minimum Plant Iterations, Maximum Plant Iterations
 System Convergence Limits, 1, 20, 2, 8
! <Simulation Control>, Do Zone Sizing, Do System Sizing, Do Plant Sizing, Do Design Days, Do Weather Simulation, Do HVAC Sizing Simulation
 Simulation Control, Yes, No, Yes, No, Yes, No
! <Performance Precision Tradeoffs>, Use Coil Direct Simulation, Zone Radiant Exchange Algorithm, Override Mode, Number of Timestep In Hour, Force Euler Method, Minimum Number of Warmup Days, Force Suppress All Begin Environment Resets, MaxZoneTempDiff
 Performance Precision Tradeoffs, No, ScriptF, Normal, 1, No, 1, No, 0.300
! <Output Reporting Tolerances>, Tolerance for Time Heating Setpoint Not Met, Tolerance for Zone Cooling Setpoint Not Met Time
 Output Reporting Tolerances, 0.200, 0.200, 
! <Site:GroundTemperature:BuildingSurface>,Jan{C},Feb{C},Mar{C},Apr{C},May{C},Jun{C},Jul{C},Aug{C},Sep{C},Oct{C},Nov{C},Dec{C}
 Site:GroundTemperature:BuildingSurface,  18.00,  18.00,  18.00,  18.00,  18.00,  18.00,  18.00,  18.00,  18.00,  18.00,  18.00,  18.00
! <Site:GroundTemperature:FCfactorMethod>,Jan{C},Feb{C},Mar{C},Apr{C},May{C},Jun{C},Jul{C},Aug{C},Sep{C},Oct{C},Nov{C},Dec{C}
 Site:GroundTemperature:FCfactorMethod,   5.86,   8.34,  11.21,  13.34,  16.31,  16.94,  15.93,  13.50,  10.34,   7.40,   5.32,   4.77
! <Site:GroundTemperature:Shallow>,Jan{C},Feb{C},Mar{C},Apr{C},May{C},Jun{C},Jul{C},Aug{C},Sep{C},Oct{C},Nov{C},Dec{C}
 Site:GroundTemperature:Shallow,  13.00,  13.00,  13.00,  13.00,  13.00,  13.00,  13.00,  13.00,  13.00,  13.00,  13.00,  13.00
! <Site:GroundTemperature:Deep>,Jan{C},Feb{C},Mar{C},Apr{C},May{C},Jun{C},Jul{C},Aug{C},Sep{C},Oct{C},Nov{C},Dec{C}
 Site:GroundTemperature:Deep,  16.00,  16.00,  16.00,  16.00,  16.00,  16.00,  16.00,  16.00,  16.00,  16.00,  16.00,  16.00
! <Site:GroundReflectance>,Jan{dimensionless},Feb{dimensionless},Mar{dimensionless},Apr{dimensionless},May{dimensionless},Jun{dimensionless},Jul{dimensionless},Aug{dimensionless},Sep{dimensionless},Oct{dimensionless},Nov{dimensionless},Dec{dimensionless}
 Site:GroundReflectance,  0.20,  0.20,  0.20,  0.20,  0.20,  0.20,  0.20,  0.20,  0.20,  0.20,  0.20,  0.20
! <Site:GroundReflectance:SnowModifier>, Normal, Daylighting {dimensionless}
 Site:GroundReflectance:SnowModifier,   1.000,   1.000
! <Site:GroundReflectance:Snow>,Jan{dimensionless},Feb{dimensionless},Mar{dimensionless},Apr{dimensionless},May{dimensionless},Jun{dimensionless},Jul{dimensionless},Aug{dimensionless},Sep{dimensionless},Oct{dimensionless},Nov{dimensionless},Dec{dimensionless}
 Site:GroundReflectance:Snow,  0.20,  0.20,  0.20,  0.20,  0.20,  0.20,  0.20,  0.20,  0.20,  0.20,  0.20,  0.20
! <Site:GroundReflectance:Snow:Daylighting>,Jan{dimensionless},Feb{dimensionless},Mar{dimensionless},Apr{dimensionless},May{dimensionless},Jun{dimensionless},Jul{dimensionless},Aug{dimensionless},Sep{dimensionless},Oct{dimensionless},Nov{dimensionless},Dec{dimensionless}
 Site:GroundReflectance:Snow:Daylighting,  0.20,  0.20,  0.20,  0.20,  0.20,  0.20,  0.20,  0.20,  0.20,  0.20,  0.20,  0.20
! <Environment:Weather Station>,Wind Sensor Height Above Ground {m},Wind Speed Profile Exponent {},Wind Speed Profile Boundary Layer Thickness {m},Air Temperature Sensor Height Above Ground {m},Wind Speed Modifier Coefficient-Internal,Temperature Modifier Coefficient-Internal
Environment:Weather Station,10.000,0.140,270.000,1.500,1.586,9.750E-003
! <Site:Location>, Location Name, Latitude {N+/S- Deg}, Longitude {E+/W- Deg},  Time Zone Number {GMT+/-}, Elevation {m},  Standard Pressure at Elevation {Pa}, Standard RhoAir at Elevation
Site:Location,SEATTLE WA USA TMY2-24233 WMO#=727930,47.45,-122.30,-8.00,122.00,99868,1.1870
! <Site Water Mains Temperature Information>,Calculation Method{},Water Mains Temperature Schedule Name{},Annual Average Outdoor Air Temperature{C},Maximum Difference In Monthly Average Outdoor Air Temperatures{deltaC},Fixed Default Water Mains Temperature{C}
Site Water Mains Temperature Information,FixedDefault,NA,NA,NA,10.0
! <Building Information>, Building Name,North Axis {deg},Terrain,  Loads Convergence Tolerance Value,Temperature Convergence Tolerance Value,  Solar Distribution,Maximum Number of Warmup Days,Minimum Number of Warmup Days
 Building Information,1300 NE 45th,90.000,Suburbs,4.00000E-002,0.40000,FullExterior,25,1
! <Inside Convection Algorithm>, Algorithm {Simple | TARP | CeilingDiffuser | AdaptiveConvectionAlgorithm}
Inside Convection Algorithm,TARP
! <Outside Convection Algorithm>, Algorithm {SimpleCombined | TARP | MoWitt | DOE-2 | AdaptiveConvectionAlgorithm}
Outside Convection Algorithm,DOE-2
! <Sky Radiance Distribution>, Value {Anisotropic}
Sky Radiance Distribution,Anisotropic
! <Zone Air Solution Algorithm>, Value {ThirdOrderBackwardDifference | AnalyticalSolution | EulerMethod}
 Zone Air Solution Algorithm, ThirdOrderBackwardDifference
! <Zone Air Carbon Dioxide Balance Simulation>, Simulation {Yes/No}, Carbon Dioxide Concentration
 Zone Air Carbon Dioxide Balance Simulation, No,N/A
! <Zone Air Generic Contaminant Balance Simulation>, Simulation {Yes/No}, Generic Contaminant Concentration
 Zone Air Generic Contaminant Balance Simulation, No,N/A
! <Zone Air Mass Flow Balance Simulation>, Enforce Mass Balance, Adjust Zone Mixing, Adjust Zone Infiltration {AddInfiltration | AdjustInfiltration | None}, Infiltration Zones {MixingSourceZonesOnly | AllZones}
 Zone Air Mass Flow Balance Simulation, No,N/A,N/A,N/A
! <HVACSystemRootFindingAlgorithm>, Value {RegulaFalsi | Bisection | BisectionThenRegulaFalsi | RegulaFalsiThenBisection}
 HVACSystemRootFindingAlgorithm, RegulaFalsi
! <Environment:Site Atmospheric Variation>,Wind Speed Profile Exponent {},Wind Speed Profile Boundary Layer Thickness {m},Air Temperature Gradient Coefficient {K/m}
Environment:Site Atmospheric Variation,0.220,370.000,6.500000E-003
! <Surface Geometry>,Starting Corner,Vertex Input Direction,Coordinate System,Daylight Reference Point Coordinate System,Rectangular (Simple) Surface Coordinate System
 Surface Geometry,UpperLeftCorner,Counterclockwise,RelativeCoordinateSystem,RelativeCoordinateSystem,RelativeToZoneOrigin
! <Surface Heat Transfer Algorithm>, Value {CTF - ConductionTransferFunction | EMPD - MoisturePenetrationDepthConductionTransferFunction | CondFD - ConductionFiniteDifference | HAMT - CombinedHeatAndMoistureFiniteElement} - Description,Inside Surface Max Temperature Limit{C}, Surface Convection Coefficient Lower Limit {W/m2-K}, Surface Convection Coefficient Upper Limit {W/m2-K}
Surface Heat Transfer Algorithm, CTF - ConductionTransferFunction,200,0.10,1000.0
! <Shading Summary>, Number of Fixed Detached Shades, Number of Building Detached Shades, Number of Attached Shades
 Shading Summary,0,0,0
! <Zone Summary>, Number of Zones, Number of Zone Surfaces, Number of SubSurfaces
 Zone Summary,182,1822,224
! <Zone Information>,Zone Name,North Axis {deg},Origin X-Coordinate {m},Origin Y-Coordinate {m},Origin Z-Coordinate {m},Centroid X-Coordinate {m},Centroid Y-Coordinate {m},Centroid Z-Coordinate {m},Type,Zone Multiplier,Zone List Multiplier,Minimum X {m},Maximum X {m},Minimum Y {m},Maximum Y {m},Minimum Z {m},Maximum Z {m},Ceiling Height {m},Volume {m3},Zone Inside Convection Algorithm {Simple-Detailed-CeilingDiffuser-TrombeWall},Zone Outside Convection Algorithm {Simple-Detailed-Tarp-MoWitt-DOE-2-BLAST}, Floor Area {m2},Exterior Gross Wall Area {m2},Exterior Net Wall Area {m2},Exterior Window Area {m2}, Number of Surfaces, Number of SubSurfaces, Number of Shading SubSurfaces,  Part of Total Building Area
 Zone Information, THERMAL ZONE: AMEN_0300,0.0,21.48,21.13,8.46,19.07,-17.98,9.93,1,1,1,17.01,21.13,-21.48,-14.48,8.46,11.41,2.95,85.02,TARP,DOE-2,28.85,20.64,4.35,16.28,10,1,0,Yes
 Zone Information, THERMAL ZONE: AMEN_0400,0.0,14.48,21.13,11.40,19.07,-17.98,12.88,1,1,1,17.01,21.13,-21.48,-14.48,11.40,14.35,2.95,84.99,TARP,DOE-2,28.85,20.62,4.34,16.28,6,1,0,Yes
 Zone Information, THERMAL ZONE: AMEN_0501,0.0,14.48,21.13,14.35,19.07,-17.98,15.82,1,1,1,17.01,21.13,-21.48,-14.48,14.35,17.30,2.95,84.99,TARP,DOE-2,28.85,20.62,4.34,16.28,6,1,0,Yes
 Zone Information, THERMAL ZONE: AMEN_2100,0.0,21.48,21.13,61.49,19.07,-17.98,63.25,1,1,1,17.01,21.13,-21.48,-14.48,61.49,65.00,3.51,101.11,TARP,DOE-2,28.85,24.53,7.19,17.35,6,1,0,Yes
 Zone Information, THERMAL ZONE: AMEN_2200,0.0,10.66,17.01,65.00,19.07,-12.57,66.68,1,1,1,17.01,21.13,-14.48,-10.66,65.00,68.35,3.35,52.89,TARP,DOE-2,15.77,12.83,5.07,7.76,6,1,0,Yes
 Zone Information, THERMAL ZONE: AMEN_2300,0.0,31.92,15.25,65.00,11.16,-29.33,66.68,1,1,1,7.07,15.25,-31.92,-26.75,65.00,68.35,3.35,141.64,TARP,DOE-2,42.25,44.74,13.67,31.07,12,2,0,Yes
 Zone Information, THERMAL ZONE: BOH_0100,0.0,38.94,24.08,0.00,20.70,-31.92,2.71,1,1,1,17.32,24.08,-38.94,-24.89,0.00,5.41,5.41,513.34,TARP,DOE-2,94.88,112.54,89.86,22.68,9,5,0,Yes
 Zone Information, THERMAL ZONE: CORR_0100,0.0,19.02,15.24,0.00,17.55,-27.46,2.71,1,1,1,15.24,24.08,-38.94,-19.02,-6.07E-028,5.41,5.41,294.91,TARP,DOE-2,54.51,90.86,78.18,5.53,21,5,0,Yes
 Zone Information, THERMAL ZONE: CORR_0200,0.0,23.83,8.69,5.41,11.99,-20.51,6.93,1,1,1,7.07,17.01,-32.69,-8.88,5.41,8.46,3.05,297.40,TARP,DOE-2,97.57,0.00,0.00,0.00,44,0,0,Yes
 Zone Information, THERMAL ZONE: CORR_0300,0.0,32.69,8.69,8.46,11.96,-20.50,9.93,1,1,1,7.07,17.01,-32.69,-8.88,8.46,11.40,2.95,287.49,TARP,DOE-2,97.57,0.00,0.00,0.00,37,0,0,Yes
 Zone Information, THERMAL ZONE: CORR_0400,0.0,32.69,8.69,11.40,11.96,-20.50,12.88,1,1,1,7.07,17.01,-32.69,-8.88,11.40,14.35,2.95,287.49,TARP,DOE-2,97.57,0.00,0.00,0.00,37,0,0,Yes
 Zone Information, THERMAL ZONE: CORR_0500,0.0,32.69,8.69,14.35,11.96,-20.50,15.82,1,1,1,7.07,17.01,-32.69,-8.88,14.35,17.30,2.95,287.49,TARP,DOE-2,97.57,0.00,0.00,0.00,37,0,0,Yes
 Zone Information, THERMAL ZONE: CORR_2100,0.0,10.68,7.07,61.49,11.96,-20.47,63.25,1,1,1,7.07,17.01,-32.69,-8.88,61.49,65.00,3.51,342.01,TARP,DOE-2,97.57,0.00,0.00,0.00,44,0,0,Yes
 Zone Information, THERMAL ZONE: CORR_2300,0.0,16.10,8.69,68.35,7.88,-19.96,70.03,1,1,1,7.07,8.69,-26.75,-13.17,68.35,71.70,3.35,73.41,TARP,DOE-2,21.90,56.33,54.38,1.95,10,1,0,Yes
 Zone Information, THERMAL ZONE: CORR_2301,0.0,18.48,8.69,68.35,10.58,-19.91,70.03,1,1,1,8.69,12.47,-21.34,-18.48,68.35,71.70,3.35,36.26,TARP,DOE-2,10.81,0.00,0.00,0.00,7,0,0,Yes
 Zone Information, THERMAL ZONE: ELEC_0300,0.0,26.75,12.03,8.46,13.64,-28.69,9.93,1,1,1,12.03,15.25,-30.63,-26.75,8.46,11.40,2.95,36.84,TARP,DOE-2,12.50,0.00,0.00,0.00,6,0,0,Yes
 Zone Information, THERMAL ZONE: ELEC_0400,0.0,26.75,12.03,11.40,13.64,-28.69,12.88,1,1,1,12.03,15.25,-30.63,-26.75,11.40,14.35,2.95,36.84,TARP,DOE-2,12.50,0.00,0.00,0.00,6,0,0,Yes
 Zone Information, THERMAL ZONE: ELEV CONTROL_2301,0.0,21.34,15.25,68.35,13.86,-19.91,70.03,1,1,1,12.47,15.25,-21.34,-18.48,68.35,71.70,3.35,26.56,TARP,DOE-2,7.92,9.58,9.58,0.00,6,0,0,Yes
 Zone Information, THERMAL ZONE: ELEV CONTROL_2302,0.0,21.34,8.69,68.35,10.06,-22.58,70.03,1,1,1,8.69,11.44,-23.83,-21.34,68.35,71.70,3.35,22.97,TARP,DOE-2,6.85,0.00,0.00,0.00,6,0,0,Yes
 Zone Information, THERMAL ZONE: ELEV LOBBY_2300,0.0,18.48,8.69,65.00,11.96,-19.91,66.68,1,1,1,8.69,15.25,-21.34,-18.48,65.00,68.35,3.35,62.81,TARP,DOE-2,18.73,0.00,0.00,0.00,8,0,0,Yes
 Zone Information, THERMAL ZONE: ELEV LOBBY_P101,0.0,21.87,8.69,-2.97,11.96,-20.44,-1.49,1,1,1,8.69,15.25,-21.87,-19.02,-2.97,0.00,2.97,55.68,TARP,DOE-2,18.73,16.98,15.03,0.00,7,1,0,Yes
 Zone Information, THERMAL ZONE: ELEV LOBBY_P200,0.0,21.87,8.69,-6.17,11.96,-20.44,-4.57,1,1,1,8.69,15.25,-21.87,-19.02,-6.17,-2.97,3.20,59.96,TARP,DOE-2,18.73,18.29,16.34,0.00,7,1,0,Yes
 Zone Information, THERMAL ZONE: ELEV_0101,0.0,19.02,8.69,0.00,11.96,-17.83,2.71,1,1,1,8.69,15.24,-19.02,-16.64,0.00,5.41,5.41,84.31,TARP,DOE-2,15.58,12.87,12.87,0.00,7,0,0,Yes
 Zone Information, THERMAL ZONE: ELEV_0102,0.0,21.87,15.25,0.00,13.34,-23.12,2.71,1,1,1,11.44,15.25,-24.36,-21.87,0.00,5.41,5.41,51.16,TARP,DOE-2,9.46,0.00,0.00,0.00,7,0,0,Yes
 Zone Information, THERMAL ZONE: ELEV_0201,0.0,18.48,8.69,5.41,11.96,-17.29,6.93,1,1,1,8.69,15.24,-18.48,-16.10,5.41,8.46,3.05,47.50,TARP,DOE-2,15.58,0.00,0.00,0.00,7,0,0,Yes
 Zone Information, THERMAL ZONE: ELEV_0202,0.0,21.34,15.25,5.41,13.34,-22.58,6.93,1,1,1,11.44,15.25,-23.83,-21.34,5.41,8.46,3.05,28.82,TARP,DOE-2,9.46,0.00,0.00,0.00,7,0,0,Yes
 Zone Information, THERMAL ZONE: ELEV_0301,0.0,16.10,15.24,8.46,11.96,-17.29,9.93,1,1,1,8.69,15.24,-18.48,-16.10,8.46,11.40,2.95,45.92,TARP,DOE-2,15.58,0.00,0.00,0.00,6,0,0,Yes
 Zone Information, THERMAL ZONE: ELEV_0302,0.0,23.83,11.44,8.46,13.34,-22.58,9.93,1,1,1,11.44,15.25,-23.83,-21.34,8.46,11.40,2.95,27.86,TARP,DOE-2,9.46,0.00,0.00,0.00,6,0,0,Yes
 Zone Information, THERMAL ZONE: ELEV_0401,0.0,16.10,15.24,11.40,11.96,-17.29,12.88,1,1,1,8.69,15.24,-18.48,-16.10,11.40,14.35,2.95,45.92,TARP,DOE-2,15.58,0.00,0.00,0.00,6,0,0,Yes
 Zone Information, THERMAL ZONE: ELEV_0402,0.0,23.83,11.44,11.40,13.34,-22.58,12.88,1,1,1,11.44,15.25,-23.83,-21.34,11.40,14.35,2.95,27.86,TARP,DOE-2,9.46,0.00,0.00,0.00,6,0,0,Yes
 Zone Information, THERMAL ZONE: ELEV_0501,0.0,16.10,15.24,14.35,11.96,-17.29,15.82,1,1,1,8.69,15.24,-18.48,-16.10,14.35,17.30,2.95,45.92,TARP,DOE-2,15.58,0.00,0.00,0.00,6,0,0,Yes
 Zone Information, THERMAL ZONE: ELEV_0502,0.0,23.83,11.44,14.35,13.34,-22.58,15.82,1,1,1,11.44,15.25,-23.83,-21.34,14.35,17.30,2.95,27.86,TARP,DOE-2,9.46,0.00,0.00,0.00,6,0,0,Yes
 Zone Information, THERMAL ZONE: ELEV_2101,0.0,18.48,15.24,61.49,11.96,-17.29,63.25,1,1,1,8.69,15.24,-18.48,-16.10,61.49,65.00,3.51,54.63,TARP,DOE-2,15.58,0.00,0.00,0.00,6,0,0,Yes
 Zone Information, THERMAL ZONE: ELEV_2102,0.0,23.83,15.25,61.49,13.34,-22.58,63.25,1,1,1,11.44,15.25,-23.83,-21.34,61.49,65.00,3.51,33.15,TARP,DOE-2,9.46,0.00,0.00,0.00,6,0,0,Yes
 Zone Information, THERMAL ZONE: ELEV_2301,0.0,16.10,8.69,65.00,11.96,-17.29,66.68,1,1,1,8.69,15.24,-18.48,-16.10,65.00,68.35,3.35,52.25,TARP,DOE-2,15.58,0.00,0.00,0.00,6,0,0,Yes
 Zone Information, THERMAL ZONE: ELEV_2302,0.0,23.83,15.25,65.00,13.34,-22.58,66.68,1,1,1,11.44,15.25,-23.83,-21.34,65.00,68.35,3.35,31.68,TARP,DOE-2,9.45,0.00,0.00,0.00,7,0,0,Yes
 Zone Information, THERMAL ZONE: ELEV_2303,0.0,16.10,8.69,68.35,11.96,-17.29,70.03,1,1,1,8.69,15.24,-18.48,-16.10,68.35,71.70,3.35,52.25,TARP,DOE-2,15.58,7.97,7.97,0.00,7,0,0,Yes
 Zone Information, THERMAL ZONE: ELEV_2304,0.0,23.83,15.25,68.35,13.34,-22.58,70.03,1,1,1,11.44,15.25,-23.83,-21.34,68.35,71.70,3.35,31.70,TARP,DOE-2,9.46,8.34,8.34,0.00,7,0,0,Yes
 Zone Information, THERMAL ZONE: ELEV_P101,0.0,19.02,8.69,-2.97,11.96,-17.83,-1.49,1,1,1,8.69,15.24,-19.02,-16.64,-2.97,0.00,2.97,46.31,TARP,DOE-2,15.58,14.13,14.13,0.00,6,0,0,Yes
 Zone Information, THERMAL ZONE: ELEV_P102,0.0,24.36,15.25,-2.97,13.34,-23.12,-1.49,1,1,1,11.44,15.25,-24.36,-21.87,-2.97,0.00,2.97,28.10,TARP,DOE-2,9.46,7.39,7.39,0.00,6,0,0,Yes
 Zone Information, THERMAL ZONE: ELEV_P201,0.0,19.02,8.69,-6.17,11.96,-17.83,-4.57,1,1,1,8.69,15.24,-19.02,-16.64,-6.17,-2.97,3.20,49.88,TARP,DOE-2,15.58,15.22,15.22,0.00,6,0,0,Yes
 Zone Information, THERMAL ZONE: ELEV_P202,0.0,24.36,15.25,-6.17,13.34,-23.12,-4.57,1,1,1,11.44,15.25,-24.36,-21.87,-6.17,-2.97,3.20,30.26,TARP,DOE-2,9.46,7.96,7.96,0.00,6,0,0,Yes
 Zone Information, THERMAL ZONE: FCC_0100,0.0,24.36,8.69,0.00,7.04,-24.58,2.71,1,1,1,5.40,8.69,-27.28,-21.87,0.00,5.41,5.41,96.13,TARP,DOE-2,17.77,0.00,0.00,0.00,11,0,0,Yes
 Zone Information, THERMAL ZONE: FITNESS_2200,0.0,3.87,7.07,65.00,13.88,-9.05,66.68,1,1,1,7.07,21.13,-14.48,-3.87,65.00,68.35,3.35,346.03,TARP,DOE-2,103.21,101.03,44.88,56.15,18,7,0,Yes
 Zone Information, THERMAL ZONE: LEASING_0100,0.0,15.21,-4.04E-014,0.00,3.43,-11.38,2.71,1,1,1,-4.19E-013,6.86,-15.21,-7.54,0.00,5.41,5.41,284.61,TARP,DOE-2,52.61,48.61,35.42,13.20,9,2,0,Yes
 Zone Information, THERMAL ZONE: LOBBY_MAIL_0100,0.0,21.87,5.40,0.00,6.70,-11.80,2.71,1,1,1,-1.99E-013,15.25,-21.88,-5.00E-013,0.00,5.41,5.41,901.96,TARP,DOE-2,166.72,188.89,171.45,15.49,34,3,0,Yes
 Zone Information, THERMAL ZONE: LOUNGE_2300,0.0,23.83,15.25,65.00,17.88,-22.81,66.68,1,1,1,15.24,21.13,-31.92,-14.48,65.00,68.35,3.35,343.88,TARP,DOE-2,102.57,78.18,26.88,51.30,17,4,0,Yes
 Zone Information, THERMAL ZONE: LOUNGE_2301,0.0,16.10,8.69,65.00,7.88,-19.96,66.67,1,1,1,7.07,8.69,-26.75,-13.17,65.00,68.35,3.35,73.41,TARP,DOE-2,21.90,45.52,39.70,5.82,10,1,0,Yes
 Zone Information, THERMAL ZONE: MECH_0200,0.0,10.21,8.69,5.41,10.37,-11.69,6.93,1,1,1,8.69,12.05,-13.17,-10.21,5.41,8.46,3.05,30.39,TARP,DOE-2,9.97,0.00,0.00,0.00,6,0,0,Yes
 Zone Information, THERMAL ZONE: MECH_0300,0.0,10.21,12.05,8.46,10.37,-11.69,9.93,1,1,1,8.69,12.05,-13.17,-10.21,8.46,11.40,2.95,29.37,TARP,DOE-2,9.97,0.00,0.00,0.00,6,0,0,Yes
 Zone Information, THERMAL ZONE: MECH_0400,0.0,10.21,12.05,11.40,10.37,-11.69,12.88,1,1,1,8.69,12.05,-13.17,-10.21,11.40,14.35,2.95,29.37,TARP,DOE-2,9.97,0.00,0.00,0.00,6,0,0,Yes
 Zone Information, THERMAL ZONE: MECH_0500,0.0,10.21,12.05,14.35,10.37,-11.69,15.82,1,1,1,8.69,12.05,-13.17,-10.21,14.35,17.30,2.95,29.37,TARP,DOE-2,9.97,0.00,0.00,0.00,6,0,0,Yes
 Zone Information, THERMAL ZONE: MECH_2100,0.0,13.17,12.05,61.49,10.37,-11.69,63.25,1,1,1,8.69,12.05,-13.17,-10.21,61.49,65.00,3.51,34.94,TARP,DOE-2,9.97,0.00,0.00,0.00,6,0,0,Yes
 Zone Information, THERMAL ZONE: PACKAGE_0100,0.0,-4.19,2.18,0.00,5.59,2.10,2.71,1,1,1,2.18,8.99,-1.89E-013,4.19,-9.51E-049,5.41,5.41,154.45,TARP,DOE-2,28.55,82.20,80.25,0.00,7,1,0,Yes
 Zone Information, THERMAL ZONE: RESTROOM_0100,0.0,27.28,15.25,0.00,14.14,-29.79,2.71,1,1,1,13.03,15.25,-32.30,-27.28,-7.10E-088,5.41,5.41,60.16,TARP,DOE-2,11.12,0.00,0.00,0.00,7,0,0,Yes
 Zone Information, THERMAL ZONE: RESTROOM_2201,0.0,10.21,8.69,65.00,10.37,-11.69,66.67,1,1,1,8.69,12.05,-13.17,-10.21,65.00,68.35,3.35,33.42,TARP,DOE-2,9.97,0.00,0.00,0.00,6,0,0,Yes
 Zone Information, THERMAL ZONE: RESTROOM_2300,0.0,21.34,8.69,65.00,10.06,-22.58,66.68,1,1,1,8.69,11.44,-23.83,-21.34,65.00,68.35,3.35,22.97,TARP,DOE-2,6.85,0.00,0.00,0.00,6,0,0,Yes
 Zone Information, THERMAL ZONE: RETAIL STORAGE_0100,0.0,27.28,5.40,0.00,9.22,-29.79,2.71,1,1,1,5.40,13.03,-32.30,-27.28,0.00,5.41,5.41,207.06,TARP,DOE-2,38.27,0.00,0.00,0.00,12,0,0,Yes
 Zone Information, THERMAL ZONE: RETAIL_0100,0.0,38.94,0.53,0.00,6.48,-31.96,2.71,1,1,1,0.53,15.25,-38.94,-21.87,-4.01E-014,5.41,5.41,802.97,TARP,DOE-2,148.42,176.10,71.70,104.39,18,14,0,Yes
 Zone Information, THERMAL ZONE: STAIR_0101,0.0,13.71,15.24,0.00,11.96,-15.17,2.71,1,1,1,8.69,15.24,-16.64,-13.71,0.00,5.41,5.41,103.91,TARP,DOE-2,19.21,51.31,51.31,0.00,7,0,0,Yes
 Zone Information, THERMAL ZONE: STAIR_0102,0.0,24.36,8.69,0.00,11.97,-25.82,2.71,1,1,1,8.69,15.25,-27.28,-24.36,0.00,5.41,5.41,103.75,TARP,DOE-2,19.18,0.00,0.00,0.00,10,0,0,Yes
 Zone Information, THERMAL ZONE: STAIR_0201,0.0,16.10,8.69,5.41,11.96,-14.64,6.93,1,1,1,8.69,15.24,-16.10,-13.17,5.41,8.46,3.05,58.54,TARP,DOE-2,19.21,0.00,0.00,0.00,8,0,0,Yes
 Zone Information, THERMAL ZONE: STAIR_0202,0.0,23.83,8.69,5.41,11.97,-25.29,6.93,1,1,1,8.69,15.25,-26.75,-23.83,5.41,8.46,3.05,58.45,TARP,DOE-2,19.18,0.00,0.00,0.00,10,0,0,Yes
 Zone Information, THERMAL ZONE: STAIR_0301,0.0,13.17,12.05,8.46,11.96,-14.64,9.93,1,1,1,8.69,15.24,-16.10,-13.17,8.46,11.40,2.95,56.59,TARP,DOE-2,19.21,0.00,0.00,0.00,7,0,0,Yes
 Zone Information, THERMAL ZONE: STAIR_0302,0.0,23.83,8.69,8.46,11.97,-25.29,9.93,1,1,1,8.69,15.25,-26.75,-23.83,8.46,11.40,2.95,56.50,TARP,DOE-2,19.18,0.00,0.00,0.00,9,0,0,Yes
 Zone Information, THERMAL ZONE: STAIR_0401,0.0,13.17,12.05,11.40,11.96,-14.64,12.88,1,1,1,8.69,15.24,-16.10,-13.17,11.40,14.35,2.95,56.59,TARP,DOE-2,19.21,0.00,0.00,0.00,7,0,0,Yes
 Zone Information, THERMAL ZONE: STAIR_0402,0.0,23.83,8.69,11.40,11.97,-25.29,12.88,1,1,1,8.69,15.25,-26.75,-23.83,11.40,14.35,2.95,56.50,TARP,DOE-2,19.18,0.00,0.00,0.00,9,0,0,Yes
 Zone Information, THERMAL ZONE: STAIR_0501,0.0,13.17,12.05,14.35,11.96,-14.64,15.82,1,1,1,8.69,15.24,-16.10,-13.17,14.35,17.30,2.95,56.59,TARP,DOE-2,19.21,0.00,0.00,0.00,7,0,0,Yes
 Zone Information, THERMAL ZONE: STAIR_0502,0.0,23.83,8.69,14.35,11.97,-25.29,15.82,1,1,1,8.69,15.25,-26.75,-23.83,14.35,17.30,2.95,56.50,TARP,DOE-2,19.18,0.00,0.00,0.00,9,0,0,Yes
 Zone Information, THERMAL ZONE: STAIR_2101,0.0,16.10,8.69,61.49,11.96,-14.64,63.25,1,1,1,8.69,15.24,-16.10,-13.17,61.49,65.00,3.51,67.32,TARP,DOE-2,19.21,0.00,0.00,0.00,7,0,0,Yes
 Zone Information, THERMAL ZONE: STAIR_2102,0.0,26.75,15.25,61.49,11.97,-25.29,63.25,1,1,1,8.69,15.25,-26.75,-23.83,61.49,65.00,3.51,67.22,TARP,DOE-2,19.18,0.00,0.00,0.00,7,0,0,Yes
 Zone Information, THERMAL ZONE: STAIR_2201,0.0,13.17,12.05,65.00,11.96,-14.64,66.67,1,1,1,8.69,15.24,-16.10,-13.17,65.00,68.35,3.35,64.39,TARP,DOE-2,19.21,0.00,0.00,0.00,8,0,0,Yes
 Zone Information, THERMAL ZONE: STAIR_2202,0.0,23.83,11.44,65.00,11.97,-25.29,66.68,1,1,1,8.69,15.25,-26.75,-23.83,65.00,68.35,3.35,64.26,TARP,DOE-2,19.17,0.00,0.00,0.00,8,0,0,Yes
 Zone Information, THERMAL ZONE: STAIR_2301,0.0,13.17,12.05,68.35,11.96,-14.64,70.03,1,1,1,8.69,15.24,-16.10,-13.17,68.35,71.70,3.35,64.39,TARP,DOE-2,19.21,31.80,31.80,0.00,6,0,0,Yes
 Zone Information, THERMAL ZONE: STAIR_2302,0.0,23.83,11.44,68.35,11.97,-25.29,70.03,1,1,1,8.69,15.25,-26.75,-23.83,68.35,71.70,3.35,64.29,TARP,DOE-2,19.18,31.79,31.79,0.00,7,0,0,Yes
 Zone Information, THERMAL ZONE: STAIR_P101,0.0,13.71,15.24,-2.97,11.96,-15.17,-1.49,1,1,1,8.69,15.24,-16.64,-13.71,-2.97,0.00,2.97,57.07,TARP,DOE-2,19.21,36.89,34.94,0.00,6,1,0,Yes
 Zone Information, THERMAL ZONE: STAIR_P102,0.0,27.28,8.69,-2.97,11.97,-25.82,-1.49,1,1,1,8.69,15.25,-27.28,-24.36,-2.97,0.00,2.97,56.99,TARP,DOE-2,19.18,36.87,34.92,0.00,8,1,0,Yes
 Zone Information, THERMAL ZONE: STAIR_P201,0.0,13.71,15.24,-6.17,11.96,-15.17,-4.57,1,1,1,8.69,15.24,-16.64,-13.71,-6.17,-2.97,3.20,61.47,TARP,DOE-2,19.21,39.73,39.73,0.00,6,0,0,Yes
 Zone Information, THERMAL ZONE: STAIR_P202,0.0,27.28,8.69,-6.17,11.97,-25.82,-4.57,1,1,1,8.69,15.25,-27.28,-24.36,-6.17,-2.97,3.20,61.37,TARP,DOE-2,19.18,39.71,37.75,0.00,8,1,0,Yes
 Zone Information, THERMAL ZONE: STOR_0100,0.0,21.87,8.69,0.00,10.06,-23.12,2.71,1,1,1,8.69,11.44,-24.36,-21.87,0.00,5.41,5.41,37.07,TARP,DOE-2,6.85,0.00,0.00,0.00,7,0,0,Yes
 Zone Information, THERMAL ZONE: STOR_0200,0.0,21.34,8.69,5.41,10.06,-22.58,6.93,1,1,1,8.69,11.44,-23.83,-21.34,5.41,8.46,3.05,20.88,TARP,DOE-2,6.85,0.00,0.00,0.00,7,0,0,Yes
 Zone Information, THERMAL ZONE: STOR_0300,0.0,21.34,11.44,8.46,10.06,-22.58,9.93,1,1,1,8.69,11.44,-23.83,-21.34,8.46,11.40,2.95,20.19,TARP,DOE-2,6.85,0.00,0.00,0.00,6,0,0,Yes
 Zone Information, THERMAL ZONE: STOR_0400,0.0,21.34,11.44,11.40,10.06,-22.58,12.88,1,1,1,8.69,11.44,-23.83,-21.34,11.40,14.35,2.95,20.19,TARP,DOE-2,6.85,0.00,0.00,0.00,6,0,0,Yes
 Zone Information, THERMAL ZONE: STOR_0500,0.0,21.34,11.44,14.35,10.06,-22.58,15.82,1,1,1,8.69,11.44,-23.83,-21.34,14.35,17.30,2.95,20.19,TARP,DOE-2,6.85,0.00,0.00,0.00,6,0,0,Yes
 Zone Information, THERMAL ZONE: STOR_2100,0.0,23.83,11.44,61.49,10.06,-22.58,63.25,1,1,1,8.69,11.44,-23.83,-21.34,61.49,65.00,3.51,24.01,TARP,DOE-2,6.85,0.00,0.00,0.00,6,0,0,Yes
 Zone Information, THERMAL ZONE: STOR_P100,0.0,21.87,8.69,-2.97,10.06,-23.12,-1.49,1,1,1,8.69,11.44,-24.36,-21.87,-2.97,0.00,2.97,20.36,TARP,DOE-2,6.85,7.39,7.39,0.00,6,0,0,Yes
 Zone Information, THERMAL ZONE: STOR_P200,0.0,21.87,8.69,-6.17,10.06,-23.12,-4.57,1,1,1,8.69,11.44,-24.36,-21.87,-6.17,-2.97,3.20,21.93,TARP,DOE-2,6.85,7.96,7.96,0.00,6,0,0,Yes
 Zone Information, THERMAL ZONE: TRASH_0200,0.0,13.17,15.24,5.41,13.65,-11.69,6.93,1,1,1,12.05,15.24,-13.17,-10.21,5.41,8.46,3.05,28.78,TARP,DOE-2,9.44,0.00,0.00,0.00,6,0,0,Yes
 Zone Information, THERMAL ZONE: TRASH_0300,0.0,13.17,12.05,8.46,13.65,-11.69,9.93,1,1,1,12.05,15.24,-13.17,-10.21,8.46,11.40,2.95,27.82,TARP,DOE-2,9.44,0.00,0.00,0.00,6,0,0,Yes
 Zone Information, THERMAL ZONE: TRASH_0400,0.0,13.17,12.05,11.40,13.65,-11.69,12.88,1,1,1,12.05,15.24,-13.17,-10.21,11.40,14.35,2.95,27.82,TARP,DOE-2,9.44,0.00,0.00,0.00,6,0,0,Yes
 Zone Information, THERMAL ZONE: TRASH_0500,0.0,13.17,12.05,14.35,13.65,-11.69,15.82,1,1,1,12.05,15.24,-13.17,-10.21,14.35,17.30,2.95,27.82,TARP,DOE-2,9.44,0.00,0.00,0.00,6,0,0,Yes
 Zone Information, THERMAL ZONE: TRASH_2100,0.0,13.17,15.24,61.49,13.65,-11.69,63.25,1,1,1,12.05,15.24,-13.17,-10.21,61.49,65.00,3.51,33.10,TARP,DOE-2,9.44,0.00,0.00,0.00,6,0,0,Yes
 Zone Information, THERMAL ZONE: TRASH_2200,0.0,13.17,12.05,65.00,13.65,-11.69,66.67,1,1,1,12.05,15.24,-13.17,-10.21,65.00,68.35,3.35,31.66,TARP,DOE-2,9.44,0.00,0.00,0.00,6,0,0,Yes
 Zone Information, THERMAL ZONE: UNIT_0201_4B,0.0,10.21,15.24,5.41,17.27,-5.60,6.93,1,1,1,12.05,24.08,-10.21,0.53,5.41,8.46,3.05,321.18,TARP,DOE-2,105.37,60.08,49.34,10.74,10,6,0,Yes
 Zone Information, THERMAL ZONE: UNIT_0202,0.0,7.15,24.08,5.41,20.54,-8.90,6.93,1,1,1,17.01,24.08,-10.66,-7.15,5.41,8.46,3.05,75.58,TARP,DOE-2,24.80,10.68,7.92,2.77,7,1,0,Yes
 Zone Information, THERMAL ZONE: UNIT_0203,0.0,10.66,24.08,5.41,20.54,-12.57,6.93,1,1,1,17.01,24.08,-14.48,-10.66,5.41,8.46,3.05,82.52,TARP,DOE-2,27.08,11.67,7.37,4.30,6,1,0,Yes
 Zone Information, THERMAL ZONE: UNIT_0204,0.0,14.48,24.08,5.41,20.54,-16.23,6.93,1,1,1,17.01,24.08,-17.98,-14.48,5.41,8.46,3.05,75.47,TARP,DOE-2,24.76,10.67,7.83,2.84,7,1,0,Yes
 Zone Information, THERMAL ZONE: UNIT_0205,0.0,17.98,24.08,5.41,20.29,-19.69,6.93,1,1,1,17.01,24.08,-21.48,-17.98,5.41,8.46,3.05,75.44,TARP,DOE-2,24.75,10.66,7.31,3.36,8,1,0,Yes
 Zone Information, THERMAL ZONE: UNIT_0206,0.0,25.31,17.01,5.41,20.37,-23.37,6.93,1,1,1,17.01,24.08,-25.31,-21.48,5.41,8.46,3.05,82.56,TARP,DOE-2,27.09,11.67,6.25,5.42,8,1,0,Yes
 Zone Information, THERMAL ZONE: UNIT_0207,0.0,28.96,17.01,5.41,20.54,-27.13,6.93,1,1,1,17.01,24.08,-28.96,-25.31,5.41,8.46,3.05,78.59,TARP,DOE-2,25.78,11.11,3.46,7.65,7,1,0,Yes
 Zone Information, THERMAL ZONE: UNIT_0208,0.0,31.92,17.01,5.41,20.54,-30.78,6.93,1,1,1,17.01,24.08,-32.61,-28.96,5.41,8.46,3.05,78.69,TARP,DOE-2,25.82,11.12,6.23,4.89,9,2,0,Yes
 Zone Information, THERMAL ZONE: UNIT_0209_3B,0.0,38.94,24.08,5.41,17.52,-34.72,6.93,1,1,1,12.03,24.08,-38.94,-30.63,5.41,8.46,3.05,255.67,TARP,DOE-2,83.88,56.04,24.70,31.34,14,3,0,Yes
 Zone Information, THERMAL ZONE: UNIT_0210,0.0,38.94,12.03,5.41,10.36,-32.84,6.93,1,1,1,8.69,12.03,-38.94,-26.75,5.41,8.46,3.05,124.10,TARP,DOE-2,40.71,10.18,4.54,5.64,10,1,0,Yes
 Zone Information, THERMAL ZONE: UNIT_0211_2B,0.0,32.69,7.07,5.41,4.34,-35.81,6.93,1,1,1,-1.88E-013,8.69,-38.94,-32.69,5.41,8.46,3.05,165.44,TARP,DOE-2,54.28,45.52,20.06,25.46,8,2,0,Yes
 Zone Information, THERMAL ZONE: UNIT_0212,0.0,32.69,-2.08E-013,5.41,3.74,-30.89,6.93,1,1,1,-4.46E-013,7.07,-32.69,-28.96,5.41,8.46,3.05,80.51,TARP,DOE-2,26.41,11.38,7.13,4.25,8,1,0,Yes
 Zone Information, THERMAL ZONE: UNIT_0213,0.0,28.96,-4.50E-013,5.41,3.54,-27.13,6.93,1,1,1,-4.49E-013,7.07,-28.96,-25.30,5.41,8.46,3.05,78.80,TARP,DOE-2,25.85,11.14,3.40,7.74,9,1,0,Yes
 Zone Information, THERMAL ZONE: UNIT_0214,0.0,25.30,-3.86E-013,5.41,3.55,-23.46,6.93,1,1,1,-3.84E-013,7.07,-25.30,-21.64,5.41,8.46,3.05,78.92,TARP,DOE-2,25.89,11.16,4.77,6.38,9,1,0,Yes
 Zone Information, THERMAL ZONE: UNIT_0215,0.0,18.00,7.07,5.41,3.54,-19.82,6.93,1,1,1,-3.79E-013,7.07,-21.64,-18.00,5.41,8.46,3.05,78.59,TARP,DOE-2,25.78,11.11,6.86,4.25,7,1,0,Yes
 Zone Information, THERMAL ZONE: UNIT_0216,0.0,14.33,7.07,5.41,3.66,-16.06,6.93,1,1,1,-4.29E-013,7.07,-18.00,-14.33,5.41,8.46,3.05,79.14,TARP,DOE-2,25.96,11.19,6.93,4.25,8,1,0,Yes
 Zone Information, THERMAL ZONE: UNIT_0217,0.0,10.68,7.07,5.41,3.54,-12.50,6.93,1,1,1,-4.29E-013,7.07,-14.33,-10.68,5.41,8.46,3.05,78.59,TARP,DOE-2,25.78,11.11,7.08,4.03,7,1,0,Yes
 Zone Information, THERMAL ZONE: UNIT_0218,0.0,8.88,7.07,5.41,3.54,-8.85,6.93,1,1,1,-4.29E-013,7.07,-10.68,-7.01,5.41,8.46,3.05,79.14,TARP,DOE-2,25.96,11.19,7.16,4.03,9,1,0,Yes
 Zone Information, THERMAL ZONE: UNIT_0219_4B,0.0,10.21,12.05,5.41,6.73,-5.02,6.93,1,1,1,-2.01E-013,12.05,-10.21,0.53,5.41,8.46,3.05,319.16,TARP,DOE-2,104.71,59.73,49.08,10.65,14,6,0,Yes
 Zone Information, THERMAL ZONE: UNIT_0301_4B,0.0,7.01,24.08,8.46,17.27,-5.62,9.93,1,1,1,12.05,24.08,-10.21,0.53,8.46,11.40,2.95,310.47,TARP,DOE-2,105.37,58.07,42.77,15.30,10,6,0,Yes
 Zone Information, THERMAL ZONE: UNIT_0302,0.0,10.66,24.08,8.46,20.54,-8.90,9.93,1,1,1,17.01,24.08,-10.66,-7.15,8.46,11.40,2.95,73.06,TARP,DOE-2,24.80,10.33,5.77,4.56,8,1,0,Yes
 Zone Information, THERMAL ZONE: UNIT_0303,0.0,14.48,24.08,8.46,20.54,-12.57,9.93,1,1,1,17.01,24.08,-14.48,-10.66,8.46,11.40,2.95,79.77,TARP,DOE-2,27.08,19.98,15.42,4.56,8,1,0,Yes
 Zone Information, THERMAL ZONE: UNIT_0304,0.0,25.31,17.07,8.46,20.54,-23.40,9.93,1,1,1,17.01,24.08,-25.31,-21.48,8.46,11.40,2.95,79.81,TARP,DOE-2,27.09,19.98,15.43,4.55,8,1,0,Yes
 Zone Information, THERMAL ZONE: UNIT_0305,0.0,25.31,17.01,8.46,20.54,-27.13,9.93,1,1,1,17.01,24.08,-28.96,-25.31,8.46,11.40,2.95,75.97,TARP,DOE-2,25.78,10.74,6.91,3.82,7,1,0,Yes
 Zone Information, THERMAL ZONE: UNIT_0306,0.0,28.96,24.08,8.46,20.54,-30.78,9.93,1,1,1,17.01,24.08,-32.61,-28.96,8.46,11.40,2.95,76.07,TARP,DOE-2,25.82,10.75,8.49,2.27,7,1,0,Yes
 Zone Information, THERMAL ZONE: UNIT_0307_3B,0.0,31.92,15.25,8.46,17.33,-34.22,9.93,1,1,1,12.03,24.08,-38.94,-30.63,8.46,11.40,2.95,247.15,TARP,DOE-2,83.88,54.17,36.34,17.83,11,5,0,Yes
 Zone Information, THERMAL ZONE: UNIT_0308,0.0,26.75,8.69,8.46,10.36,-32.84,9.93,1,1,1,8.69,12.03,-38.94,-26.75,8.46,11.40,2.95,119.96,TARP,DOE-2,40.71,9.84,5.55,4.29,10,1,0,Yes
 Zone Information, THERMAL ZONE: UNIT_0309_2B,0.0,32.69,7.07,8.46,4.34,-35.81,9.93,1,1,1,-1.77E-013,8.69,-38.94,-32.69,8.46,11.40,2.95,159.93,TARP,DOE-2,54.28,44.01,30.35,13.65,7,4,0,Yes
 Zone Information, THERMAL ZONE: UNIT_0310,0.0,28.96,7.07,8.46,3.54,-30.82,9.93,1,1,1,-4.68E-013,7.07,-32.69,-28.96,8.46,11.40,2.95,77.82,TARP,DOE-2,26.41,11.00,8.68,2.32,6,1,0,Yes
 Zone Information, THERMAL ZONE: UNIT_0311,0.0,28.96,-4.68E-013,8.46,3.54,-27.13,9.93,1,1,1,-4.66E-013,7.07,-28.96,-25.30,8.46,11.40,2.95,76.18,TARP,DOE-2,25.85,10.77,5.97,4.80,6,1,0,Yes
 Zone Information, THERMAL ZONE: UNIT_0312,0.0,21.64,7.07,8.46,3.54,-23.47,9.93,1,1,1,-4.58E-013,7.07,-25.30,-21.64,8.46,11.40,2.95,76.29,TARP,DOE-2,25.89,10.78,5.98,4.80,6,1,0,Yes
 Zone Information, THERMAL ZONE: UNIT_0313,0.0,21.64,-4.68E-013,8.46,3.54,-19.82,9.93,1,1,1,-5.85E-013,7.07,-21.64,-18.00,8.46,11.40,2.95,75.97,TARP,DOE-2,25.78,10.74,6.36,4.38,6,1,0,Yes
 Zone Information, THERMAL ZONE: UNIT_0314,0.0,18.00,7.07,8.46,3.54,-16.16,9.93,1,1,1,-4.18E-013,7.07,-18.00,-14.33,8.46,11.40,2.95,76.50,TARP,DOE-2,25.96,10.81,6.44,4.38,6,1,0,Yes
 Zone Information, THERMAL ZONE: UNIT_0315,0.0,14.33,-4.68E-013,8.46,3.54,-12.50,9.93,1,1,1,-4.67E-013,7.07,-14.33,-10.68,8.46,11.40,2.95,75.97,TARP,DOE-2,25.78,10.74,5.90,4.84,6,1,0,Yes
 Zone Information, THERMAL ZONE: UNIT_0316,0.0,7.01,5.98,8.46,3.54,-8.85,9.93,1,1,1,-4.80E-013,7.07,-10.68,-7.01,8.46,11.40,2.95,76.50,TARP,DOE-2,25.96,10.81,5.98,4.84,8,1,0,Yes
 Zone Information, THERMAL ZONE: UNIT_0317_4B,0.0,-0.53,12.05,8.46,6.80,-5.57,9.93,1,1,1,-4.01E-013,12.05,-10.21,0.53,8.46,11.40,2.95,308.52,TARP,DOE-2,104.71,57.74,42.28,15.46,12,6,0,Yes
 Zone Information, THERMAL ZONE: UNIT_0401_4B,0.0,7.01,24.08,11.40,17.27,-5.62,12.88,1,1,1,12.05,24.08,-10.21,0.53,11.40,14.35,2.95,310.47,TARP,DOE-2,105.37,58.07,39.53,18.54,10,6,0,Yes
 Zone Information, THERMAL ZONE: UNIT_0402,0.0,10.66,24.08,11.40,20.54,-8.90,12.88,1,1,1,17.01,24.08,-10.66,-7.15,11.40,14.35,2.95,73.06,TARP,DOE-2,24.80,10.33,4.80,5.53,8,1,0,Yes
 Zone Information, THERMAL ZONE: UNIT_0403,0.0,14.48,24.08,11.40,20.54,-12.57,12.88,1,1,1,17.01,24.08,-14.48,-10.66,11.40,14.35,2.95,79.77,TARP,DOE-2,27.08,19.98,14.45,5.53,8,1,0,Yes
 Zone Information, THERMAL ZONE: UNIT_0404,0.0,25.31,17.07,11.40,20.54,-23.40,12.88,1,1,1,17.01,24.08,-25.31,-21.48,11.40,14.35,2.95,79.81,TARP,DOE-2,27.09,19.98,14.47,5.52,8,1,0,Yes
 Zone Information, THERMAL ZONE: UNIT_0405,0.0,25.31,17.01,11.40,20.54,-27.13,12.88,1,1,1,17.01,24.08,-28.96,-25.31,11.40,14.35,2.95,75.97,TARP,DOE-2,25.78,10.74,6.10,4.63,7,1,0,Yes
 Zone Information, THERMAL ZONE: UNIT_0406,0.0,28.96,24.08,11.40,20.54,-30.78,12.88,1,1,1,17.01,24.08,-32.61,-28.96,11.40,14.35,2.95,76.07,TARP,DOE-2,25.82,10.75,8.01,2.75,7,1,0,Yes
 Zone Information, THERMAL ZONE: UNIT_0407_3B,0.0,31.92,15.25,11.40,17.33,-34.22,12.88,1,1,1,12.03,24.08,-38.94,-30.63,11.40,14.35,2.95,247.15,TARP,DOE-2,83.88,54.17,32.56,21.61,11,5,0,Yes
 Zone Information, THERMAL ZONE: UNIT_0408,0.0,26.75,8.69,11.40,10.36,-32.84,12.88,1,1,1,8.69,12.03,-38.94,-26.75,11.40,14.35,2.95,119.96,TARP,DOE-2,40.71,9.84,4.65,5.19,10,1,0,Yes
 Zone Information, THERMAL ZONE: UNIT_0409_2B,0.0,32.69,7.07,11.40,4.34,-35.81,12.88,1,1,1,-4.07E-013,8.69,-38.94,-32.69,11.40,14.35,2.95,159.93,TARP,DOE-2,54.28,44.01,27.59,16.41,7,4,0,Yes
 Zone Information, THERMAL ZONE: UNIT_0410,0.0,28.96,7.07,11.40,3.54,-30.82,12.88,1,1,1,-7.28E-013,7.07,-32.69,-28.96,11.40,14.35,2.95,77.82,TARP,DOE-2,26.41,11.00,8.25,2.75,6,1,0,Yes
 Zone Information, THERMAL ZONE: UNIT_0411,0.0,28.96,-7.22E-013,11.40,3.54,-27.13,12.88,1,1,1,-7.20E-013,7.07,-28.96,-25.30,11.40,14.35,2.95,76.18,TARP,DOE-2,25.85,10.77,5.08,5.69,6,1,0,Yes
 Zone Information, THERMAL ZONE: UNIT_0412,0.0,21.64,7.07,11.40,3.54,-23.47,12.88,1,1,1,-7.18E-013,7.07,-25.30,-21.64,11.40,14.35,2.95,76.29,TARP,DOE-2,25.89,10.78,5.10,5.69,6,1,0,Yes
 Zone Information, THERMAL ZONE: UNIT_0413,0.0,21.64,-5.14E-013,11.40,3.54,-19.82,12.88,1,1,1,-6.31E-013,7.07,-21.64,-18.00,11.40,14.35,2.95,75.97,TARP,DOE-2,25.78,10.74,5.56,5.18,6,1,0,Yes
 Zone Information, THERMAL ZONE: UNIT_0414,0.0,18.00,7.07,11.40,3.54,-16.16,12.88,1,1,1,-6.48E-013,7.07,-18.00,-14.33,11.40,14.35,2.95,76.50,TARP,DOE-2,25.96,10.81,5.63,5.18,6,1,0,Yes
 Zone Information, THERMAL ZONE: UNIT_0415,0.0,14.33,-6.76E-013,11.40,3.54,-12.50,12.88,1,1,1,-6.75E-013,7.07,-14.33,-10.68,11.40,14.35,2.95,75.97,TARP,DOE-2,25.78,10.74,5.01,5.73,6,1,0,Yes
 Zone Information, THERMAL ZONE: UNIT_0416,0.0,7.01,5.98,11.40,3.54,-8.85,12.88,1,1,1,-6.59E-013,7.07,-10.68,-7.01,11.40,14.35,2.95,76.50,TARP,DOE-2,25.96,10.81,5.09,5.73,8,1,0,Yes
 Zone Information, THERMAL ZONE: UNIT_0417_4B,0.0,-0.53,12.05,11.40,6.80,-5.57,12.88,1,1,1,-4.01E-013,12.05,-10.21,0.53,11.40,14.35,2.95,308.52,TARP,DOE-2,104.71,57.74,39.19,18.54,12,6,0,Yes
 Zone Information, THERMAL ZONE: UNIT_0501_4B,0.0,7.01,24.08,14.35,17.27,-5.62,15.82,1,1,1,12.05,24.08,-10.21,0.53,14.35,17.30,2.95,310.47,TARP,DOE-2,105.37,58.07,39.53,18.54,10,6,0,Yes
 Zone Information, THERMAL ZONE: UNIT_0502,0.0,10.66,24.08,14.35,20.54,-8.90,15.82,1,1,1,17.01,24.08,-10.66,-7.15,14.35,17.30,2.95,73.06,TARP,DOE-2,24.80,10.33,4.80,5.53,8,1,0,Yes
 Zone Information, THERMAL ZONE: UNIT_0503,0.0,14.48,24.08,14.35,20.54,-12.57,15.82,1,1,1,17.01,24.08,-14.48,-10.66,14.35,17.30,2.95,79.77,TARP,DOE-2,27.08,19.98,14.45,5.53,8,1,0,Yes
 Zone Information, THERMAL ZONE: UNIT_0504,0.0,25.31,17.07,14.35,20.54,-23.40,15.82,1,1,1,17.01,24.08,-25.31,-21.48,14.35,17.30,2.95,79.81,TARP,DOE-2,27.09,19.98,14.47,5.52,8,1,0,Yes
 Zone Information, THERMAL ZONE: UNIT_0505,0.0,25.31,17.01,14.35,20.54,-27.13,15.82,1,1,1,17.01,24.08,-28.96,-25.31,14.35,17.30,2.95,75.97,TARP,DOE-2,25.78,10.74,6.10,4.63,7,1,0,Yes
 Zone Information, THERMAL ZONE: UNIT_0506,0.0,28.96,24.08,14.35,20.54,-30.78,15.82,1,1,1,17.01,24.08,-32.61,-28.96,14.35,17.30,2.95,76.07,TARP,DOE-2,25.82,10.75,8.01,2.75,7,1,0,Yes
 Zone Information, THERMAL ZONE: UNIT_0507_3B,0.0,31.92,15.25,14.35,17.33,-34.22,15.82,1,1,1,12.03,24.08,-38.94,-30.63,14.35,17.30,2.95,247.15,TARP,DOE-2,83.88,54.17,32.56,21.61,11,5,0,Yes
 Zone Information, THERMAL ZONE: UNIT_0508,0.0,26.75,8.69,14.35,10.36,-32.84,15.82,1,1,1,8.69,12.03,-38.94,-26.75,14.35,17.30,2.95,119.96,TARP,DOE-2,40.71,9.84,4.65,5.19,10,1,0,Yes
 Zone Information, THERMAL ZONE: UNIT_0509_2B,0.0,32.69,7.07,14.35,4.34,-35.81,15.82,1,1,1,-7.79E-014,8.69,-38.94,-32.69,14.35,17.30,2.95,159.93,TARP,DOE-2,54.28,44.01,27.59,16.41,7,4,0,Yes
 Zone Information, THERMAL ZONE: UNIT_0510,0.0,28.96,7.07,14.35,3.54,-30.82,15.82,1,1,1,-3.99E-013,7.07,-32.69,-28.96,14.35,17.30,2.95,77.82,TARP,DOE-2,26.41,11.00,8.25,2.75,6,1,0,Yes
 Zone Information, THERMAL ZONE: UNIT_0511,0.0,28.96,-3.93E-013,14.35,3.54,-27.13,15.82,1,1,1,-3.91E-013,7.07,-28.96,-25.30,14.35,17.30,2.95,76.18,TARP,DOE-2,25.85,10.77,5.08,5.69,6,1,0,Yes
 Zone Information, THERMAL ZONE: UNIT_0512,0.0,21.64,7.07,14.35,3.54,-23.47,15.82,1,1,1,-3.88E-013,7.07,-25.30,-21.64,14.35,17.30,2.95,76.29,TARP,DOE-2,25.89,10.78,5.10,5.69,6,1,0,Yes
 Zone Information, THERMAL ZONE: UNIT_0513,0.0,21.64,-1.85E-013,14.35,3.54,-19.82,15.82,1,1,1,-3.02E-013,7.07,-21.64,-18.00,14.35,17.30,2.95,75.97,TARP,DOE-2,25.78,10.74,5.56,5.18,6,1,0,Yes
 Zone Information, THERMAL ZONE: UNIT_0514,0.0,18.00,7.07,14.35,3.54,-16.16,15.82,1,1,1,-3.19E-013,7.07,-18.00,-14.33,14.35,17.30,2.95,76.50,TARP,DOE-2,25.96,10.81,5.63,5.18,6,1,0,Yes
 Zone Information, THERMAL ZONE: UNIT_0515,0.0,14.33,-3.47E-013,14.35,3.54,-12.50,15.82,1,1,1,-3.46E-013,7.07,-14.33,-10.68,14.35,17.30,2.95,75.97,TARP,DOE-2,25.78,10.74,5.01,5.73,6,1,0,Yes
 Zone Information, THERMAL ZONE: UNIT_0516,0.0,7.01,5.98,14.35,3.54,-8.85,15.82,1,1,1,-3.30E-013,7.07,-10.68,-7.01,14.35,17.30,2.95,76.50,TARP,DOE-2,25.96,10.81,5.09,5.73,8,1,0,Yes
 Zone Information, THERMAL ZONE: UNIT_0517_4B,0.0,-0.53,12.05,14.35,6.80,-5.57,15.82,1,1,1,-1.01E-013,12.05,-10.21,0.53,14.35,17.30,2.95,308.52,TARP,DOE-2,104.71,57.74,39.19,18.54,12,6,0,Yes
 Zone Information, THERMAL ZONE: UNIT_2101_4B,0.0,10.21,15.24,61.49,17.54,-5.16,63.25,1,1,1,12.05,24.08,-10.21,0.53,61.49,65.00,3.51,369.36,TARP,DOE-2,105.37,69.09,53.79,15.30,11,6,0,Yes
 Zone Information, THERMAL ZONE: UNIT_2102,0.0,10.66,24.08,61.49,20.54,-8.90,63.25,1,1,1,17.01,24.08,-10.66,-7.15,61.49,65.00,3.51,86.91,TARP,DOE-2,24.80,12.29,7.73,4.56,8,1,0,Yes
 Zone Information, THERMAL ZONE: UNIT_2103,0.0,14.48,17.01,61.49,20.54,-12.57,63.25,1,1,1,17.01,24.08,-14.48,-10.66,61.49,65.00,3.51,94.90,TARP,DOE-2,27.08,23.77,19.21,4.56,8,1,0,Yes
 Zone Information, THERMAL ZONE: UNIT_2104,0.0,25.31,24.08,61.49,20.54,-23.40,63.25,1,1,1,17.01,24.08,-25.31,-21.48,61.49,65.00,3.51,94.94,TARP,DOE-2,27.09,23.77,19.22,4.55,8,1,0,Yes
 Zone Information, THERMAL ZONE: UNIT_2105,0.0,28.96,24.08,61.49,20.54,-27.13,63.25,1,1,1,17.01,24.08,-28.96,-25.31,61.49,65.00,3.51,90.38,TARP,DOE-2,25.78,12.78,8.22,4.55,7,1,0,Yes
 Zone Information, THERMAL ZONE: UNIT_2106,0.0,31.92,17.01,61.49,20.42,-30.79,63.25,1,1,1,17.01,24.08,-32.61,-28.96,61.49,65.00,3.51,90.49,TARP,DOE-2,25.82,12.79,10.52,2.27,8,1,0,Yes
 Zone Information, THERMAL ZONE: UNIT_2107_3B,0.0,38.94,24.08,61.49,17.46,-34.50,63.25,1,1,1,12.03,24.08,-38.94,-30.63,61.49,65.00,3.51,293.84,TARP,DOE-2,83.88,64.44,46.61,17.83,11,5,0,Yes
 Zone Information, THERMAL ZONE: UNIT_2108,0.0,38.94,12.03,61.49,11.39,-32.07,63.25,1,1,1,8.69,15.25,-38.94,-26.75,61.49,65.00,3.51,186.54,TARP,DOE-2,53.22,11.71,7.42,4.29,11,1,0,Yes
 Zone Information, THERMAL ZONE: UNIT_2109_2B,0.0,38.94,8.69,61.49,4.34,-35.81,63.25,1,1,1,-2.77E-013,8.69,-38.94,-32.69,61.49,65.00,3.51,190.26,TARP,DOE-2,54.28,52.35,38.81,13.55,7,4,0,Yes
 Zone Information, THERMAL ZONE: UNIT_2110,0.0,32.69,-2.54E-013,61.49,3.54,-30.82,63.25,1,1,1,-5.76E-013,7.07,-32.69,-28.96,61.49,65.00,3.51,92.58,TARP,DOE-2,26.41,13.09,10.82,2.27,6,1,0,Yes
 Zone Information, THERMAL ZONE: UNIT_2111,0.0,28.96,7.07,61.49,3.54,-27.13,63.25,1,1,1,-5.99E-013,7.07,-28.96,-25.30,61.49,65.00,3.51,90.62,TARP,DOE-2,25.85,12.81,8.12,4.69,6,1,0,Yes
 Zone Information, THERMAL ZONE: UNIT_2112,0.0,25.30,7.07,61.49,3.54,-23.47,63.25,1,1,1,-5.48E-013,7.07,-25.30,-21.64,61.49,65.00,3.51,90.76,TARP,DOE-2,25.89,12.83,8.14,4.69,6,1,0,Yes
 Zone Information, THERMAL ZONE: UNIT_2113,0.0,21.64,7.07,61.49,3.54,-19.82,63.25,1,1,1,-3.19E-013,7.07,-21.64,-18.00,61.49,65.00,3.51,90.38,TARP,DOE-2,25.78,12.78,7.59,5.18,6,1,0,Yes
 Zone Information, THERMAL ZONE: UNIT_2114,0.0,18.00,-3.00E-013,61.49,3.54,-16.16,63.25,1,1,1,-4.84E-013,7.07,-18.00,-14.33,61.49,65.00,3.51,91.01,TARP,DOE-2,25.96,12.87,7.68,5.18,6,1,0,Yes
 Zone Information, THERMAL ZONE: UNIT_2115,0.0,14.33,-4.85E-013,61.49,3.54,-12.50,63.25,1,1,1,-5.31E-013,7.07,-14.33,-10.68,61.49,65.00,3.51,90.38,TARP,DOE-2,25.78,12.78,8.05,4.73,6,1,0,Yes
 Zone Information, THERMAL ZONE: UNIT_2116,0.0,10.68,7.07,61.49,3.54,-8.85,63.25,1,1,1,-5.49E-013,7.07,-10.68,-7.01,61.49,65.00,3.51,91.01,TARP,DOE-2,25.96,12.87,8.14,4.73,7,1,0,Yes
 Zone Information, THERMAL ZONE: UNIT_2117_4B,0.0,7.01,7.07,61.49,6.85,-4.99,63.25,1,1,1,-3.70E-013,12.05,-10.21,0.53,61.49,65.00,3.51,367.04,TARP,DOE-2,104.71,68.69,53.39,15.30,11,6,0,Yes
 Zone Information, THERMAL ZONE: XFMR_0201,0.0,26.75,12.03,5.41,13.64,-28.69,6.93,1,1,1,12.03,15.25,-30.63,-26.75,5.41,8.46,3.05,38.11,TARP,DOE-2,12.50,0.00,0.00,0.00,8,0,0,Yes
 Zone Information, THERMAL ZONE: XFMR_0401,0.0,26.75,12.03,14.35,13.64,-28.69,15.82,1,1,1,12.03,15.25,-30.63,-26.75,14.35,17.30,2.95,36.84,TARP,DOE-2,12.50,0.00,0.00,0.00,6,0,0,Yes
! <Zone Internal Gains Nominal>,Zone Name, Floor Area {m2},# Occupants,Area per Occupant {m2/person},Occupant per Area {person/m2},Interior Lighting {W/m2},Electric Load {W/m2},Gas Load {W/m2},Other Load {W/m2},Hot Water Eq {W/m2},Steam Equipment {W/m2},Sum Loads per Area {W/m2},Outdoor Controlled Baseboard Heat
 Zone Internal Gains Nominal, THERMAL ZONE: AMEN_0300,28.85,3.1,9.290,0.108,5.597,8.181,0.000,0.000,0.000,0.000,13.778,No
 Zone Internal Gains Nominal, THERMAL ZONE: AMEN_0400,28.85,3.1,9.290,0.108,5.597,8.181,0.000,0.000,0.000,0.000,13.778,No
 Zone Internal Gains Nominal, THERMAL ZONE: AMEN_0501,28.85,3.1,9.290,0.108,5.597,8.181,0.000,0.000,0.000,0.000,13.778,No
 Zone Internal Gains Nominal, THERMAL ZONE: AMEN_2100,28.85,3.1,9.290,0.108,5.597,8.181,0.000,0.000,0.000,0.000,13.778,No
 Zone Internal Gains Nominal, THERMAL ZONE: AMEN_2200,15.77,1.7,9.290,0.108,5.597,8.181,0.000,0.000,0.000,0.000,13.778,No
 Zone Internal Gains Nominal, THERMAL ZONE: AMEN_2300,42.25,4.5,9.290,0.108,5.597,8.181,0.000,0.000,0.000,0.000,13.778,No
 Zone Internal Gains Nominal, THERMAL ZONE: BOH_0100,94.88,5.1,18.581,5.382E-002,8.611,16.038,0.000,0.000,0.000,0.000,24.649,No
 Zone Internal Gains Nominal, THERMAL ZONE: CORR_0100,54.51,0.0,N/A,0.000,5.167,0.000,0.000,0.000,0.000,0.000,5.167,No
 Zone Internal Gains Nominal, THERMAL ZONE: CORR_0200,97.57,0.0,N/A,0.000,5.167,0.000,0.000,0.000,0.000,0.000,5.167,No
 Zone Internal Gains Nominal, THERMAL ZONE: CORR_0300,97.57,0.0,N/A,0.000,5.167,0.000,0.000,0.000,0.000,0.000,5.167,No
 Zone Internal Gains Nominal, THERMAL ZONE: CORR_0400,97.57,0.0,N/A,0.000,5.167,0.000,0.000,0.000,0.000,0.000,5.167,No
 Zone Internal Gains Nominal, THERMAL ZONE: CORR_0500,97.57,0.0,N/A,0.000,5.167,0.000,0.000,0.000,0.000,0.000,5.167,No
 Zone Internal Gains Nominal, THERMAL ZONE: CORR_2100,97.57,0.0,N/A,0.000,5.167,0.000,0.000,0.000,0.000,0.000,5.167,No
 Zone Internal Gains Nominal, THERMAL ZONE: CORR_2300,21.90,0.0,N/A,0.000,5.167,0.000,0.000,0.000,0.000,0.000,5.167,No
 Zone Internal Gains Nominal, THERMAL ZONE: CORR_2301,10.81,0.0,N/A,0.000,5.167,0.000,0.000,0.000,0.000,0.000,5.167,No
 Zone Internal Gains Nominal, THERMAL ZONE: ELEC_0300,12.50,0.0,N/A,0.000,7.319,2.906,0.000,0.000,0.000,0.000,10.226,No
 Zone Internal Gains Nominal, THERMAL ZONE: ELEC_0400,12.50,0.0,N/A,0.000,7.319,2.906,0.000,0.000,0.000,0.000,10.226,No
 Zone Internal Gains Nominal, THERMAL ZONE: ELEV CONTROL_2301,7.92,0.0,N/A,0.000,7.319,0.000,0.000,0.000,0.000,0.000,7.319,No
 Zone Internal Gains Nominal, THERMAL ZONE: ELEV CONTROL_2302,6.85,0.0,N/A,0.000,7.319,0.000,0.000,0.000,0.000,0.000,7.319,No
 Zone Internal Gains Nominal, THERMAL ZONE: ELEV LOBBY_2300,18.73,0.0,N/A,0.000,5.167,0.000,0.000,0.000,0.000,0.000,5.167,No
 Zone Internal Gains Nominal, THERMAL ZONE: ELEV LOBBY_P101,18.73,0.0,N/A,0.000,5.167,0.000,0.000,0.000,0.000,0.000,5.167,No
 Zone Internal Gains Nominal, THERMAL ZONE: ELEV LOBBY_P200,18.73,0.0,N/A,0.000,5.167,0.000,0.000,0.000,0.000,0.000,5.167,No
 Zone Internal Gains Nominal, THERMAL ZONE: ELEV_0101,15.58,0.0,N/A,0.000,0.000,0.000,0.000,0.000,0.000,0.000,0.000,No
 Zone Internal Gains Nominal, THERMAL ZONE: ELEV_0102,9.46,0.0,N/A,0.000,0.000,0.000,0.000,0.000,0.000,0.000,0.000,No
 Zone Internal Gains Nominal, THERMAL ZONE: ELEV_0201,15.58,0.0,N/A,0.000,0.000,0.000,0.000,0.000,0.000,0.000,0.000,No
 Zone Internal Gains Nominal, THERMAL ZONE: ELEV_0202,9.46,0.0,N/A,0.000,0.000,0.000,0.000,0.000,0.000,0.000,0.000,No
 Zone Internal Gains Nominal, THERMAL ZONE: ELEV_0301,15.58,0.0,N/A,0.000,0.000,0.000,0.000,0.000,0.000,0.000,0.000,No
 Zone Internal Gains Nominal, THERMAL ZONE: ELEV_0302,9.46,0.0,N/A,0.000,0.000,0.000,0.000,0.000,0.000,0.000,0.000,No
 Zone Internal Gains Nominal, THERMAL ZONE: ELEV_0401,15.58,0.0,N/A,0.000,0.000,0.000,0.000,0.000,0.000,0.000,0.000,No
 Zone Internal Gains Nominal, THERMAL ZONE: ELEV_0402,9.46,0.0,N/A,0.000,0.000,0.000,0.000,0.000,0.000,0.000,0.000,No
 Zone Internal Gains Nominal, THERMAL ZONE: ELEV_0501,15.58,0.0,N/A,0.000,0.000,0.000,0.000,0.000,0.000,0.000,0.000,No
 Zone Internal Gains Nominal, THERMAL ZONE: ELEV_0502,9.46,0.0,N/A,0.000,0.000,0.000,0.000,0.000,0.000,0.000,0.000,No
 Zone Internal Gains Nominal, THERMAL ZONE: ELEV_2101,15.58,0.0,N/A,0.000,0.000,0.000,0.000,0.000,0.000,0.000,0.000,No
 Zone Internal Gains Nominal, THERMAL ZONE: ELEV_2102,9.46,0.0,N/A,0.000,0.000,0.000,0.000,0.000,0.000,0.000,0.000,No
 Zone Internal Gains Nominal, THERMAL ZONE: ELEV_2301,15.58,0.0,N/A,0.000,0.000,0.000,0.000,0.000,0.000,0.000,0.000,No
 Zone Internal Gains Nominal, THERMAL ZONE: ELEV_2302,9.45,0.0,N/A,0.000,0.000,0.000,0.000,0.000,0.000,0.000,0.000,No
 Zone Internal Gains Nominal, THERMAL ZONE: ELEV_2303,15.58,0.0,N/A,0.000,0.000,0.000,0.000,0.000,0.000,0.000,0.000,No
 Zone Internal Gains Nominal, THERMAL ZONE: ELEV_2304,9.46,0.0,N/A,0.000,0.000,0.000,0.000,0.000,0.000,0.000,0.000,No
 Zone Internal Gains Nominal, THERMAL ZONE: ELEV_P101,15.58,0.0,N/A,0.000,0.000,0.000,0.000,0.000,0.000,0.000,0.000,No
 Zone Internal Gains Nominal, THERMAL ZONE: ELEV_P102,9.46,0.0,N/A,0.000,0.000,0.000,0.000,0.000,0.000,0.000,0.000,No
 Zone Internal Gains Nominal, THERMAL ZONE: ELEV_P201,15.58,0.0,N/A,0.000,0.000,0.000,0.000,0.000,0.000,0.000,0.000,No
 Zone Internal Gains Nominal, THERMAL ZONE: ELEV_P202,9.46,0.0,N/A,0.000,0.000,0.000,0.000,0.000,0.000,0.000,0.000,No
 Zone Internal Gains Nominal, THERMAL ZONE: FCC_0100,17.77,0.0,N/A,0.000,7.319,2.906,0.000,0.000,0.000,0.000,10.226,No
 Zone Internal Gains Nominal, THERMAL ZONE: FITNESS_2200,103.21,11.1,9.290,0.108,5.597,8.181,0.000,0.000,0.000,0.000,13.778,No
 Zone Internal Gains Nominal, THERMAL ZONE: LEASING_0100,52.61,2.8,18.581,5.382E-002,8.611,16.038,0.000,0.000,0.000,0.000,24.649,No
 Zone Internal Gains Nominal, THERMAL ZONE: LOBBY_MAIL_0100,166.72,0.0,N/A,0.000,5.167,0.000,0.000,0.000,0.000,0.000,5.167,No
 Zone Internal Gains Nominal, THERMAL ZONE: LOUNGE_2300,102.57,11.0,9.290,0.108,5.597,8.181,0.000,0.000,0.000,0.000,13.778,No
 Zone Internal Gains Nominal, THERMAL ZONE: LOUNGE_2301,21.90,2.4,9.290,0.108,5.597,8.181,0.000,0.000,0.000,0.000,13.778,No
 Zone Internal Gains Nominal, THERMAL ZONE: MECH_0200,9.97,0.0,N/A,0.000,7.319,2.906,0.000,0.000,0.000,0.000,10.226,No
 Zone Internal Gains Nominal, THERMAL ZONE: MECH_0300,9.97,0.0,N/A,0.000,7.319,2.906,0.000,0.000,0.000,0.000,10.226,No
 Zone Internal Gains Nominal, THERMAL ZONE: MECH_0400,9.97,0.0,N/A,0.000,7.319,2.906,0.000,0.000,0.000,0.000,10.226,No
 Zone Internal Gains Nominal, THERMAL ZONE: MECH_0500,9.97,0.0,N/A,0.000,7.319,2.906,0.000,0.000,0.000,0.000,10.226,No
 Zone Internal Gains Nominal, THERMAL ZONE: MECH_2100,9.97,0.0,N/A,0.000,7.319,2.906,0.000,0.000,0.000,0.000,10.226,No
 Zone Internal Gains Nominal, THERMAL ZONE: PACKAGE_0100,28.55,0.0,N/A,0.000,4.844,0.000,0.000,0.000,0.000,0.000,4.844,No
 Zone Internal Gains Nominal, THERMAL ZONE: RESTROOM_0100,11.12,0.0,N/A,0.000,7.535,0.753,0.000,0.000,0.000,0.000,8.288,No
 Zone Internal Gains Nominal, THERMAL ZONE: RESTROOM_2201,9.97,0.0,N/A,0.000,7.535,0.753,0.000,0.000,0.000,0.000,8.288,No
 Zone Internal Gains Nominal, THERMAL ZONE: RESTROOM_2300,6.85,0.0,N/A,0.000,7.535,0.753,0.000,0.000,0.000,0.000,8.288,No
 Zone Internal Gains Nominal, THERMAL ZONE: RETAIL STORAGE_0100,38.27,0.0,N/A,0.000,4.844,0.000,0.000,0.000,0.000,0.000,4.844,No
 Zone Internal Gains Nominal, THERMAL ZONE: RETAIL_0100,148.42,8.0,18.581,5.382E-002,8.611,16.038,0.000,0.000,0.000,0.000,24.649,No
 Zone Internal Gains Nominal, THERMAL ZONE: STAIR_0101,19.21,0.0,N/A,0.000,5.382,0.000,0.000,0.000,0.000,0.000,5.382,No
 Zone Internal Gains Nominal, THERMAL ZONE: STAIR_0102,19.18,0.0,N/A,0.000,5.382,0.000,0.000,0.000,0.000,0.000,5.382,No
 Zone Internal Gains Nominal, THERMAL ZONE: STAIR_0201,19.21,0.0,N/A,0.000,5.382,0.000,0.000,0.000,0.000,0.000,5.382,No
 Zone Internal Gains Nominal, THERMAL ZONE: STAIR_0202,19.18,0.0,N/A,0.000,5.382,0.000,0.000,0.000,0.000,0.000,5.382,No
 Zone Internal Gains Nominal, THERMAL ZONE: STAIR_0301,19.21,0.0,N/A,0.000,5.382,0.000,0.000,0.000,0.000,0.000,5.382,No
 Zone Internal Gains Nominal, THERMAL ZONE: STAIR_0302,19.18,0.0,N/A,0.000,5.382,0.000,0.000,0.000,0.000,0.000,5.382,No
 Zone Internal Gains Nominal, THERMAL ZONE: STAIR_0401,19.21,0.0,N/A,0.000,5.382,0.000,0.000,0.000,0.000,0.000,5.382,No
 Zone Internal Gains Nominal, THERMAL ZONE: STAIR_0402,19.18,0.0,N/A,0.000,5.382,0.000,0.000,0.000,0.000,0.000,5.382,No
 Zone Internal Gains Nominal, THERMAL ZONE: STAIR_0501,19.21,0.0,N/A,0.000,5.382,0.000,0.000,0.000,0.000,0.000,5.382,No
 Zone Internal Gains Nominal, THERMAL ZONE: STAIR_0502,19.18,0.0,N/A,0.000,5.382,0.000,0.000,0.000,0.000,0.000,5.382,No
 Zone Internal Gains Nominal, THERMAL ZONE: STAIR_2101,19.21,0.0,N/A,0.000,5.382,0.000,0.000,0.000,0.000,0.000,5.382,No
 Zone Internal Gains Nominal, THERMAL ZONE: STAIR_2102,19.18,0.0,N/A,0.000,5.382,0.000,0.000,0.000,0.000,0.000,5.382,No
 Zone Internal Gains Nominal, THERMAL ZONE: STAIR_2201,19.21,0.0,N/A,0.000,5.382,0.000,0.000,0.000,0.000,0.000,5.382,No
 Zone Internal Gains Nominal, THERMAL ZONE: STAIR_2202,19.17,0.0,N/A,0.000,5.382,0.000,0.000,0.000,0.000,0.000,5.382,No
 Zone Internal Gains Nominal, THERMAL ZONE: STAIR_2301,19.21,0.0,N/A,0.000,5.382,0.000,0.000,0.000,0.000,0.000,5.382,No
 Zone Internal Gains Nominal, THERMAL ZONE: STAIR_2302,19.18,0.0,N/A,0.000,5.382,0.000,0.000,0.000,0.000,0.000,5.382,No
 Zone Internal Gains Nominal, THERMAL ZONE: STAIR_P101,19.21,0.0,N/A,0.000,5.382,0.000,0.000,0.000,0.000,0.000,5.382,No
 Zone Internal Gains Nominal, THERMAL ZONE: STAIR_P102,19.18,0.0,N/A,0.000,5.382,0.000,0.000,0.000,0.000,0.000,5.382,No
 Zone Internal Gains Nominal, THERMAL ZONE: STAIR_P201,19.21,0.0,N/A,0.000,5.382,0.000,0.000,0.000,0.000,0.000,5.382,No
 Zone Internal Gains Nominal, THERMAL ZONE: STAIR_P202,19.18,0.0,N/A,0.000,5.382,0.000,0.000,0.000,0.000,0.000,5.382,No
 Zone Internal Gains Nominal, THERMAL ZONE: STOR_0100,6.85,0.0,N/A,0.000,4.844,0.000,0.000,0.000,0.000,0.000,4.844,No
 Zone Internal Gains Nominal, THERMAL ZONE: STOR_0200,6.85,0.0,N/A,0.000,4.844,0.000,0.000,0.000,0.000,0.000,4.844,No
 Zone Internal Gains Nominal, THERMAL ZONE: STOR_0300,6.85,0.0,N/A,0.000,4.844,0.000,0.000,0.000,0.000,0.000,4.844,No
 Zone Internal Gains Nominal, THERMAL ZONE: STOR_0400,6.85,0.0,N/A,0.000,4.844,0.000,0.000,0.000,0.000,0.000,4.844,No
 Zone Internal Gains Nominal, THERMAL ZONE: STOR_0500,6.85,0.0,N/A,0.000,4.844,0.000,0.000,0.000,0.000,0.000,4.844,No
 Zone Internal Gains Nominal, THERMAL ZONE: STOR_2100,6.85,0.0,N/A,0.000,4.844,0.000,0.000,0.000,0.000,0.000,4.844,No
 Zone Internal Gains Nominal, THERMAL ZONE: STOR_P100,6.85,0.0,N/A,0.000,4.844,0.000,0.000,0.000,0.000,0.000,4.844,No
 Zone Internal Gains Nominal, THERMAL ZONE: STOR_P200,6.85,0.0,N/A,0.000,4.844,0.000,0.000,0.000,0.000,0.000,4.844,No
 Zone Internal Gains Nominal, THERMAL ZONE: TRASH_0200,9.44,0.0,N/A,0.000,4.844,0.000,0.000,0.000,0.000,0.000,4.844,No
 Zone Internal Gains Nominal, THERMAL ZONE: TRASH_0300,9.44,0.0,N/A,0.000,4.844,0.000,0.000,0.000,0.000,0.000,4.844,No
 Zone Internal Gains Nominal, THERMAL ZONE: TRASH_0400,9.44,0.0,N/A,0.000,4.844,0.000,0.000,0.000,0.000,0.000,4.844,No
 Zone Internal Gains Nominal, THERMAL ZONE: TRASH_0500,9.44,0.0,N/A,0.000,4.844,0.000,0.000,0.000,0.000,0.000,4.844,No
 Zone Internal Gains Nominal, THERMAL ZONE: TRASH_2100,9.44,0.0,N/A,0.000,4.844,0.000,0.000,0.000,0.000,0.000,4.844,No
 Zone Internal Gains Nominal, THERMAL ZONE: TRASH_2200,9.44,0.0,N/A,0.000,4.844,0.000,0.000,0.000,0.000,0.000,4.844,No
 Zone Internal Gains Nominal, THERMAL ZONE: UNIT_0201_4B,105.37,1.0,105.374,9.490E-003,3.983,3.875,0.000,0.000,0.000,0.000,7.858,No
 Zone Internal Gains Nominal, THERMAL ZONE: UNIT_0202,24.80,1.0,24.795,4.033E-002,3.983,3.875,0.000,0.000,0.000,0.000,7.858,No
 Zone Internal Gains Nominal, THERMAL ZONE: UNIT_0203,27.08,1.0,27.075,3.693E-002,3.983,3.875,0.000,0.000,0.000,0.000,7.858,No
 Zone Internal Gains Nominal, THERMAL ZONE: UNIT_0204,24.76,1.0,24.762,4.038E-002,3.983,3.875,0.000,0.000,0.000,0.000,7.858,No
 Zone Internal Gains Nominal, THERMAL ZONE: UNIT_0205,24.75,1.0,24.751,4.040E-002,3.983,3.875,0.000,0.000,0.000,0.000,7.858,No
 Zone Internal Gains Nominal, THERMAL ZONE: UNIT_0206,27.09,1.0,27.086,3.692E-002,3.983,3.875,0.000,0.000,0.000,0.000,7.858,No
 Zone Internal Gains Nominal, THERMAL ZONE: UNIT_0207,25.78,1.0,25.784,3.878E-002,3.983,3.875,0.000,0.000,0.000,0.000,7.858,No
 Zone Internal Gains Nominal, THERMAL ZONE: UNIT_0208,25.82,1.0,25.817,3.873E-002,3.983,3.875,0.000,0.000,0.000,0.000,7.858,No
 Zone Internal Gains Nominal, THERMAL ZONE: UNIT_0209_3B,83.88,1.0,83.881,1.192E-002,3.983,3.875,0.000,0.000,0.000,0.000,7.858,No
 Zone Internal Gains Nominal, THERMAL ZONE: UNIT_0210,40.71,1.0,40.714,2.456E-002,3.983,3.875,0.000,0.000,0.000,0.000,7.858,No
 Zone Internal Gains Nominal, THERMAL ZONE: UNIT_0211_2B,54.28,1.0,54.279,1.842E-002,3.983,3.875,0.000,0.000,0.000,0.000,7.858,No
 Zone Internal Gains Nominal, THERMAL ZONE: UNIT_0212,26.41,1.0,26.413,3.786E-002,3.983,3.875,0.000,0.000,0.000,0.000,7.858,No
 Zone Internal Gains Nominal, THERMAL ZONE: UNIT_0213,25.85,1.0,25.854,3.868E-002,3.983,3.875,0.000,0.000,0.000,0.000,7.858,No
 Zone Internal Gains Nominal, THERMAL ZONE: UNIT_0214,25.89,1.0,25.893,3.862E-002,3.983,3.875,0.000,0.000,0.000,0.000,7.858,No
 Zone Internal Gains Nominal, THERMAL ZONE: UNIT_0215,25.78,1.0,25.784,3.878E-002,3.983,3.875,0.000,0.000,0.000,0.000,7.858,No
 Zone Internal Gains Nominal, THERMAL ZONE: UNIT_0216,25.96,1.0,25.963,3.852E-002,3.983,3.875,0.000,0.000,0.000,0.000,7.858,No
 Zone Internal Gains Nominal, THERMAL ZONE: UNIT_0217,25.78,1.0,25.784,3.878E-002,3.983,3.875,0.000,0.000,0.000,0.000,7.858,No
 Zone Internal Gains Nominal, THERMAL ZONE: UNIT_0218,25.96,1.0,25.963,3.852E-002,3.983,3.875,0.000,0.000,0.000,0.000,7.858,No
 Zone Internal Gains Nominal, THERMAL ZONE: UNIT_0219_4B,104.71,1.0,104.712,9.550E-003,3.983,3.875,0.000,0.000,0.000,0.000,7.858,No
 Zone Internal Gains Nominal, THERMAL ZONE: UNIT_0301_4B,105.37,1.0,105.374,9.490E-003,3.983,3.875,0.000,0.000,0.000,0.000,7.858,No
 Zone Internal Gains Nominal, THERMAL ZONE: UNIT_0302,24.80,1.0,24.795,4.033E-002,3.983,3.875,0.000,0.000,0.000,0.000,7.858,No
 Zone Internal Gains Nominal, THERMAL ZONE: UNIT_0303,27.08,1.0,27.075,3.693E-002,3.983,3.875,0.000,0.000,0.000,0.000,7.858,No
 Zone Internal Gains Nominal, THERMAL ZONE: UNIT_0304,27.09,1.0,27.086,3.692E-002,3.983,3.875,0.000,0.000,0.000,0.000,7.858,No
 Zone Internal Gains Nominal, THERMAL ZONE: UNIT_0305,25.78,1.0,25.784,3.878E-002,3.983,3.875,0.000,0.000,0.000,0.000,7.858,No
 Zone Internal Gains Nominal, THERMAL ZONE: UNIT_0306,25.82,1.0,25.817,3.873E-002,3.983,3.875,0.000,0.000,0.000,0.000,7.858,No
 Zone Internal Gains Nominal, THERMAL ZONE: UNIT_0307_3B,83.88,1.0,83.881,1.192E-002,3.983,3.875,0.000,0.000,0.000,0.000,7.858,No
 Zone Internal Gains Nominal, THERMAL ZONE: UNIT_0308,40.71,1.0,40.714,2.456E-002,3.983,3.875,0.000,0.000,0.000,0.000,7.858,No
 Zone Internal Gains Nominal, THERMAL ZONE: UNIT_0309_2B,54.28,1.0,54.279,1.842E-002,3.983,3.875,0.000,0.000,0.000,0.000,7.858,No
 Zone Internal Gains Nominal, THERMAL ZONE: UNIT_0310,26.41,1.0,26.413,3.786E-002,3.983,3.875,0.000,0.000,0.000,0.000,7.858,No
 Zone Internal Gains Nominal, THERMAL ZONE: UNIT_0311,25.85,1.0,25.854,3.868E-002,3.983,3.875,0.000,0.000,0.000,0.000,7.858,No
 Zone Internal Gains Nominal, THERMAL ZONE: UNIT_0312,25.89,1.0,25.893,3.862E-002,3.983,3.875,0.000,0.000,0.000,0.000,7.858,No
 Zone Internal Gains Nominal, THERMAL ZONE: UNIT_0313,25.78,1.0,25.784,3.878E-002,3.983,3.875,0.000,0.000,0.000,0.000,7.858,No
 Zone Internal Gains Nominal, THERMAL ZONE: UNIT_0314,25.96,1.0,25.963,3.852E-002,3.983,3.875,0.000,0.000,0.000,0.000,7.858,No
 Zone Internal Gains Nominal, THERMAL ZONE: UNIT_0315,25.78,1.0,25.784,3.878E-002,3.983,3.875,0.000,0.000,0.000,0.000,7.858,No
 Zone Internal Gains Nominal, THERMAL ZONE: UNIT_0316,25.96,1.0,25.963,3.852E-002,3.983,3.875,0.000,0.000,0.000,0.000,7.858,No
 Zone Internal Gains Nominal, THERMAL ZONE: UNIT_0317_4B,104.71,1.0,104.712,9.550E-003,3.983,3.875,0.000,0.000,0.000,0.000,7.858,No
 Zone Internal Gains Nominal, THERMAL ZONE: UNIT_0401_4B,105.37,1.0,105.374,9.490E-003,3.983,3.875,0.000,0.000,0.000,0.000,7.858,No
 Zone Internal Gains Nominal, THERMAL ZONE: UNIT_0402,24.80,1.0,24.795,4.033E-002,3.983,3.875,0.000,0.000,0.000,0.000,7.858,No
 Zone Internal Gains Nominal, THERMAL ZONE: UNIT_0403,27.08,1.0,27.075,3.693E-002,3.983,3.875,0.000,0.000,0.000,0.000,7.858,No
 Zone Internal Gains Nominal, THERMAL ZONE: UNIT_0404,27.09,1.0,27.086,3.692E-002,3.983,3.875,0.000,0.000,0.000,0.000,7.858,No
 Zone Internal Gains Nominal, THERMAL ZONE: UNIT_0405,25.78,1.0,25.784,3.878E-002,3.983,3.875,0.000,0.000,0.000,0.000,7.858,No
 Zone Internal Gains Nominal, THERMAL ZONE: UNIT_0406,25.82,1.0,25.817,3.873E-002,3.983,3.875,0.000,0.000,0.000,0.000,7.858,No
 Zone Internal Gains Nominal, THERMAL ZONE: UNIT_0407_3B,83.88,1.0,83.881,1.192E-002,3.983,3.875,0.000,0.000,0.000,0.000,7.858,No
 Zone Internal Gains Nominal, THERMAL ZONE: UNIT_0408,40.71,1.0,40.714,2.456E-002,3.983,3.875,0.000,0.000,0.000,0.000,7.858,No
 Zone Internal Gains Nominal, THERMAL ZONE: UNIT_0409_2B,54.28,1.0,54.279,1.842E-002,3.983,3.875,0.000,0.000,0.000,0.000,7.858,No
 Zone Internal Gains Nominal, THERMAL ZONE: UNIT_0410,26.41,1.0,26.413,3.786E-002,3.983,3.875,0.000,0.000,0.000,0.000,7.858,No
 Zone Internal Gains Nominal, THERMAL ZONE: UNIT_0411,25.85,1.0,25.854,3.868E-002,3.983,3.875,0.000,0.000,0.000,0.000,7.858,No
 Zone Internal Gains Nominal, THERMAL ZONE: UNIT_0412,25.89,1.0,25.893,3.862E-002,3.983,3.875,0.000,0.000,0.000,0.000,7.858,No
 Zone Internal Gains Nominal, THERMAL ZONE: UNIT_0413,25.78,1.0,25.784,3.878E-002,3.983,3.875,0.000,0.000,0.000,0.000,7.858,No
 Zone Internal Gains Nominal, THERMAL ZONE: UNIT_0414,25.96,1.0,25.963,3.852E-002,3.983,3.875,0.000,0.000,0.000,0.000,7.858,No
 Zone Internal Gains Nominal, THERMAL ZONE: UNIT_0415,25.78,1.0,25.784,3.878E-002,3.983,3.875,0.000,0.000,0.000,0.000,7.858,No
 Zone Internal Gains Nominal, THERMAL ZONE: UNIT_0416,25.96,1.0,25.963,3.852E-002,3.983,3.875,0.000,0.000,0.000,0.000,7.858,No
 Zone Internal Gains Nominal, THERMAL ZONE: UNIT_0417_4B,104.71,1.0,104.712,9.550E-003,3.983,3.875,0.000,0.000,0.000,0.000,7.858,No
 Zone Internal Gains Nominal, THERMAL ZONE: UNIT_0501_4B,105.37,1.0,105.374,9.490E-003,3.983,3.875,0.000,0.000,0.000,0.000,7.858,No
 Zone Internal Gains Nominal, THERMAL ZONE: UNIT_0502,24.80,1.0,24.795,4.033E-002,3.983,3.875,0.000,0.000,0.000,0.000,7.858,No
 Zone Internal Gains Nominal, THERMAL ZONE: UNIT_0503,27.08,1.0,27.075,3.693E-002,3.983,3.875,0.000,0.000,0.000,0.000,7.858,No
 Zone Internal Gains Nominal, THERMAL ZONE: UNIT_0504,27.09,1.0,27.086,3.692E-002,3.983,3.875,0.000,0.000,0.000,0.000,7.858,No
 Zone Internal Gains Nominal, THERMAL ZONE: UNIT_0505,25.78,1.0,25.784,3.878E-002,3.983,3.875,0.000,0.000,0.000,0.000,7.858,No
 Zone Internal Gains Nominal, THERMAL ZONE: UNIT_0506,25.82,1.0,25.817,3.873E-002,3.983,3.875,0.000,0.000,0.000,0.000,7.858,No
 Zone Internal Gains Nominal, THERMAL ZONE: UNIT_0507_3B,83.88,1.0,83.881,1.192E-002,3.983,3.875,0.000,0.000,0.000,0.000,7.858,No
 Zone Internal Gains Nominal, THERMAL ZONE: UNIT_0508,40.71,1.0,40.714,2.456E-002,3.983,3.875,0.000,0.000,0.000,0.000,7.858,No
 Zone Internal Gains Nominal, THERMAL ZONE: UNIT_0509_2B,54.28,1.0,54.279,1.842E-002,3.983,3.875,0.000,0.000,0.000,0.000,7.858,No
 Zone Internal Gains Nominal, THERMAL ZONE: UNIT_0510,26.41,1.0,26.413,3.786E-002,3.983,3.875,0.000,0.000,0.000,0.000,7.858,No
 Zone Internal Gains Nominal, THERMAL ZONE: UNIT_0511,25.85,1.0,25.854,3.868E-002,3.983,3.875,0.000,0.000,0.000,0.000,7.858,No
 Zone Internal Gains Nominal, THERMAL ZONE: UNIT_0512,25.89,1.0,25.893,3.862E-002,3.983,3.875,0.000,0.000,0.000,0.000,7.858,No
 Zone Internal Gains Nominal, THERMAL ZONE: UNIT_0513,25.78,1.0,25.784,3.878E-002,3.983,3.875,0.000,0.000,0.000,0.000,7.858,No
 Zone Internal Gains Nominal, THERMAL ZONE: UNIT_0514,25.96,1.0,25.963,3.852E-002,3.983,3.875,0.000,0.000,0.000,0.000,7.858,No
 Zone Internal Gains Nominal, THERMAL ZONE: UNIT_0515,25.78,1.0,25.784,3.878E-002,3.983,3.875,0.000,0.000,0.000,0.000,7.858,No
 Zone Internal Gains Nominal, THERMAL ZONE: UNIT_0516,25.96,1.0,25.963,3.852E-002,3.983,3.875,0.000,0.000,0.000,0.000,7.858,No
 Zone Internal Gains Nominal, THERMAL ZONE: UNIT_0517_4B,104.71,1.0,104.712,9.550E-003,3.983,3.875,0.000,0.000,0.000,0.000,7.858,No
 Zone Internal Gains Nominal, THERMAL ZONE: UNIT_2101_4B,105.37,1.0,105.374,9.490E-003,3.983,3.875,0.000,0.000,0.000,0.000,7.858,No
 Zone Internal Gains Nominal, THERMAL ZONE: UNIT_2102,24.80,1.0,24.795,4.033E-002,3.983,3.875,0.000,0.000,0.000,0.000,7.858,No
 Zone Internal Gains Nominal, THERMAL ZONE: UNIT_2103,27.08,1.0,27.075,3.693E-002,3.983,3.875,0.000,0.000,0.000,0.000,7.858,No
 Zone Internal Gains Nominal, THERMAL ZONE: UNIT_2104,27.09,1.0,27.086,3.692E-002,3.983,3.875,0.000,0.000,0.000,0.000,7.858,No
 Zone Internal Gains Nominal, THERMAL ZONE: UNIT_2105,25.78,1.0,25.784,3.878E-002,3.983,3.875,0.000,0.000,0.000,0.000,7.858,No
 Zone Internal Gains Nominal, THERMAL ZONE: UNIT_2106,25.82,1.0,25.817,3.873E-002,3.983,3.875,0.000,0.000,0.000,0.000,7.858,No
 Zone Internal Gains Nominal, THERMAL ZONE: UNIT_2107_3B,83.88,1.0,83.881,1.192E-002,3.983,3.875,0.000,0.000,0.000,0.000,7.858,No
 Zone Internal Gains Nominal, THERMAL ZONE: UNIT_2108,53.22,1.0,53.218,1.879E-002,3.983,3.875,0.000,0.000,0.000,0.000,7.858,No
 Zone Internal Gains Nominal, THERMAL ZONE: UNIT_2109_2B,54.28,1.0,54.279,1.842E-002,3.983,3.875,0.000,0.000,0.000,0.000,7.858,No
 Zone Internal Gains Nominal, THERMAL ZONE: UNIT_2110,26.41,1.0,26.413,3.786E-002,3.983,3.875,0.000,0.000,0.000,0.000,7.858,No
 Zone Internal Gains Nominal, THERMAL ZONE: UNIT_2111,25.85,1.0,25.854,3.868E-002,3.983,3.875,0.000,0.000,0.000,0.000,7.858,No
 Zone Internal Gains Nominal, THERMAL ZONE: UNIT_2112,25.89,1.0,25.893,3.862E-002,3.983,3.875,0.000,0.000,0.000,0.000,7.858,No
 Zone Internal Gains Nominal, THERMAL ZONE: UNIT_2113,25.78,1.0,25.784,3.878E-002,3.983,3.875,0.000,0.000,0.000,0.000,7.858,No
 Zone Internal Gains Nominal, THERMAL ZONE: UNIT_2114,25.96,1.0,25.963,3.852E-002,3.983,3.875,0.000,0.000,0.000,0.000,7.858,No
 Zone Internal Gains Nominal, THERMAL ZONE: UNIT_2115,25.78,1.0,25.784,3.878E-002,3.983,3.875,0.000,0.000,0.000,0.000,7.858,No
 Zone Internal Gains Nominal, THERMAL ZONE: UNIT_2116,25.96,1.0,25.963,3.852E-002,3.983,3.875,0.000,0.000,0.000,0.000,7.858,No
 Zone Internal Gains Nominal, THERMAL ZONE: UNIT_2117_4B,104.71,1.0,104.712,9.550E-003,3.983,3.875,0.000,0.000,0.000,0.000,7.858,No
 Zone Internal Gains Nominal, THERMAL ZONE: XFMR_0201,12.50,0.0,N/A,0.000,7.319,0.000,0.000,0.000,0.000,0.000,7.319,No
 Zone Internal Gains Nominal, THERMAL ZONE: XFMR_0401,12.50,0.0,N/A,0.000,7.319,0.000,0.000,0.000,0.000,0.000,7.319,No
! <People Internal Gains Nominal>,Name,Schedule Name,Zone Name,Zone Floor Area {m2},# Zone Occupants,Number of People {},People/Floor Area {person/m2},Floor Area per person {m2/person},Fraction Radiant,Fraction Convected,Sensible Fraction Calculation,Activity level,ASHRAE 55 Warnings,Carbon Dioxide Generation Rate,Nominal Minimum Number of People,Nominal Maximum Number of People
 People Internal Gains Nominal, THERMAL ZONE: AMEN_0300 AMENITY PEOPLE,MIDRISEAPARTMENT APARTMENT OCC,THERMAL ZONE: AMEN_0300,28.85,3.1,3.1,0.108,9.290,0.300,0.700,AutoCalculate,MIDRISEAPARTMENT ACTIVITY,No,3.8200E-008,1,3
 People Internal Gains Nominal, THERMAL ZONE: AMEN_0400 AMENITY PEOPLE,MIDRISEAPARTMENT APARTMENT OCC,THERMAL ZONE: AMEN_0400,28.85,3.1,3.1,0.108,9.290,0.300,0.700,AutoCalculate,MIDRISEAPARTMENT ACTIVITY,No,3.8200E-008,1,3
 People Internal Gains Nominal, THERMAL ZONE: AMEN_0501 AMENITY PEOPLE,MIDRISEAPARTMENT APARTMENT OCC,THERMAL ZONE: AMEN_0501,28.85,3.1,3.1,0.108,9.290,0.300,0.700,AutoCalculate,MIDRISEAPARTMENT ACTIVITY,No,3.8200E-008,1,3
 People Internal Gains Nominal, THERMAL ZONE: AMEN_2100 AMENITY PEOPLE,MIDRISEAPARTMENT APARTMENT OCC,THERMAL ZONE: AMEN_2100,28.85,3.1,3.1,0.108,9.290,0.300,0.700,AutoCalculate,MIDRISEAPARTMENT ACTIVITY,No,3.8200E-008,1,3
 People Internal Gains Nominal, THERMAL ZONE: AMEN_2200 AMENITY PEOPLE,MIDRISEAPARTMENT APARTMENT OCC,THERMAL ZONE: AMEN_2200,15.77,1.7,1.7,0.108,9.290,0.300,0.700,AutoCalculate,MIDRISEAPARTMENT ACTIVITY,No,3.8200E-008,0,2
 People Internal Gains Nominal, THERMAL ZONE: AMEN_2300 AMENITY PEOPLE,MIDRISEAPARTMENT APARTMENT OCC,THERMAL ZONE: AMEN_2300,42.25,4.5,4.5,0.108,9.290,0.300,0.700,AutoCalculate,MIDRISEAPARTMENT ACTIVITY,No,3.8200E-008,1,5
 People Internal Gains Nominal, THERMAL ZONE: FITNESS_2200 AMENITY PEOPLE,MIDRISEAPARTMENT APARTMENT OCC,THERMAL ZONE: FITNESS_2200,103.21,11.1,11.1,0.108,9.290,0.300,0.700,AutoCalculate,MIDRISEAPARTMENT ACTIVITY,No,3.8200E-008,3,11
 People Internal Gains Nominal, THERMAL ZONE: LOUNGE_2300 AMENITY PEOPLE,MIDRISEAPARTMENT APARTMENT OCC,THERMAL ZONE: LOUNGE_2300,102.57,11.0,11.0,0.108,9.290,0.300,0.700,AutoCalculate,MIDRISEAPARTMENT ACTIVITY,No,3.8200E-008,3,11
 People Internal Gains Nominal, THERMAL ZONE: LOUNGE_2301 AMENITY PEOPLE,MIDRISEAPARTMENT APARTMENT OCC,THERMAL ZONE: LOUNGE_2301,21.90,2.4,2.4,0.108,9.290,0.300,0.700,AutoCalculate,MIDRISEAPARTMENT ACTIVITY,No,3.8200E-008,1,2
 People Internal Gains Nominal, THERMAL ZONE: BOH_0100 PEOPLE 1,APARTMENTMIDRISE OCC_OFF_SCH,THERMAL ZONE: BOH_0100,94.88,5.1,5.1,5.382E-002,18.581,0.300,0.700,AutoCalculate,MIDRISEAPARTMENT ACTIVITY,No,3.8200E-008,0,5
 People Internal Gains Nominal, THERMAL ZONE: LEASING_0100 PEOPLE 1,APARTMENTMIDRISE OCC_OFF_SCH,THERMAL ZONE: LEASING_0100,52.61,2.8,2.8,5.382E-002,18.581,0.300,0.700,AutoCalculate,MIDRISEAPARTMENT ACTIVITY,No,3.8200E-008,0,3
 People Internal Gains Nominal, THERMAL ZONE: RETAIL_0100 PEOPLE 1,APARTMENTMIDRISE OCC_OFF_SCH,THERMAL ZONE: RETAIL_0100,148.42,8.0,8.0,5.382E-002,18.581,0.300,0.700,AutoCalculate,MIDRISEAPARTMENT ACTIVITY,No,3.8200E-008,0,8
 People Internal Gains Nominal, THERMAL ZONE: UNIT_0201_4B APARTMENT PEOPLE,MIDRISEAPARTMENT APARTMENT OCC,THERMAL ZONE: UNIT_0201_4B,105.37,1.0,1.0,9.490E-003,105.374,0.300,0.700,AutoCalculate,MIDRISEAPARTMENT ACTIVITY,No,3.8200E-008,0,1
 People Internal Gains Nominal, THERMAL ZONE: UNIT_0202 APARTMENT PEOPLE,MIDRISEAPARTMENT APARTMENT OCC,THERMAL ZONE: UNIT_0202,24.80,1.0,1.0,4.033E-002,24.795,0.300,0.700,AutoCalculate,MIDRISEAPARTMENT ACTIVITY,No,3.8200E-008,0,1
 People Internal Gains Nominal, THERMAL ZONE: UNIT_0203 APARTMENT PEOPLE,MIDRISEAPARTMENT APARTMENT OCC,THERMAL ZONE: UNIT_0203,27.08,1.0,1.0,3.693E-002,27.075,0.300,0.700,AutoCalculate,MIDRISEAPARTMENT ACTIVITY,No,3.8200E-008,0,1
 People Internal Gains Nominal, THERMAL ZONE: UNIT_0204 APARTMENT PEOPLE,MIDRISEAPARTMENT APARTMENT OCC,THERMAL ZONE: UNIT_0204,24.76,1.0,1.0,4.038E-002,24.762,0.300,0.700,AutoCalculate,MIDRISEAPARTMENT ACTIVITY,No,3.8200E-008,0,1
 People Internal Gains Nominal, THERMAL ZONE: UNIT_0205 APARTMENT PEOPLE,MIDRISEAPARTMENT APARTMENT OCC,THERMAL ZONE: UNIT_0205,24.75,1.0,1.0,4.040E-002,24.751,0.300,0.700,AutoCalculate,MIDRISEAPARTMENT ACTIVITY,No,3.8200E-008,0,1
 People Internal Gains Nominal, THERMAL ZONE: UNIT_0206 APARTMENT PEOPLE,MIDRISEAPARTMENT APARTMENT OCC,THERMAL ZONE: UNIT_0206,27.09,1.0,1.0,3.692E-002,27.086,0.300,0.700,AutoCalculate,MIDRISEAPARTMENT ACTIVITY,No,3.8200E-008,0,1
 People Internal Gains Nominal, THERMAL ZONE: UNIT_0207 APARTMENT PEOPLE,MIDRISEAPARTMENT APARTMENT OCC,THERMAL ZONE: UNIT_0207,25.78,1.0,1.0,3.878E-002,25.784,0.300,0.700,AutoCalculate,MIDRISEAPARTMENT ACTIVITY,No,3.8200E-008,0,1
 People Internal Gains Nominal, THERMAL ZONE: UNIT_0208 APARTMENT PEOPLE,MIDRISEAPARTMENT APARTMENT OCC,THERMAL ZONE: UNIT_0208,25.82,1.0,1.0,3.873E-002,25.817,0.300,0.700,AutoCalculate,MIDRISEAPARTMENT ACTIVITY,No,3.8200E-008,0,1
 People Internal Gains Nominal, THERMAL ZONE: UNIT_0209_3B APARTMENT PEOPLE,MIDRISEAPARTMENT APARTMENT OCC,THERMAL ZONE: UNIT_0209_3B,83.88,1.0,1.0,1.192E-002,83.881,0.300,0.700,AutoCalculate,MIDRISEAPARTMENT ACTIVITY,No,3.8200E-008,0,1
 People Internal Gains Nominal, THERMAL ZONE: UNIT_0210 APARTMENT PEOPLE,MIDRISEAPARTMENT APARTMENT OCC,THERMAL ZONE: UNIT_0210,40.71,1.0,1.0,2.456E-002,40.714,0.300,0.700,AutoCalculate,MIDRISEAPARTMENT ACTIVITY,No,3.8200E-008,0,1
 People Internal Gains Nominal, THERMAL ZONE: UNIT_0211_2B APARTMENT PEOPLE,MIDRISEAPARTMENT APARTMENT OCC,THERMAL ZONE: UNIT_0211_2B,54.28,1.0,1.0,1.842E-002,54.279,0.300,0.700,AutoCalculate,MIDRISEAPARTMENT ACTIVITY,No,3.8200E-008,0,1
 People Internal Gains Nominal, THERMAL ZONE: UNIT_0212 APARTMENT PEOPLE,MIDRISEAPARTMENT APARTMENT OCC,THERMAL ZONE: UNIT_0212,26.41,1.0,1.0,3.786E-002,26.413,0.300,0.700,AutoCalculate,MIDRISEAPARTMENT ACTIVITY,No,3.8200E-008,0,1
 People Internal Gains Nominal, THERMAL ZONE: UNIT_0213 APARTMENT PEOPLE,MIDRISEAPARTMENT APARTMENT OCC,THERMAL ZONE: UNIT_0213,25.85,1.0,1.0,3.868E-002,25.854,0.300,0.700,AutoCalculate,MIDRISEAPARTMENT ACTIVITY,No,3.8200E-008,0,1
 People Internal Gains Nominal, THERMAL ZONE: UNIT_0214 APARTMENT PEOPLE,MIDRISEAPARTMENT APARTMENT OCC,THERMAL ZONE: UNIT_0214,25.89,1.0,1.0,3.862E-002,25.893,0.300,0.700,AutoCalculate,MIDRISEAPARTMENT ACTIVITY,No,3.8200E-008,0,1
 People Internal Gains Nominal, THERMAL ZONE: UNIT_0215 APARTMENT PEOPLE,MIDRISEAPARTMENT APARTMENT OCC,THERMAL ZONE: UNIT_0215,25.78,1.0,1.0,3.878E-002,25.784,0.300,0.700,AutoCalculate,MIDRISEAPARTMENT ACTIVITY,No,3.8200E-008,0,1
 People Internal Gains Nominal, THERMAL ZONE: UNIT_0216 APARTMENT PEOPLE,MIDRISEAPARTMENT APARTMENT OCC,THERMAL ZONE: UNIT_0216,25.96,1.0,1.0,3.852E-002,25.963,0.300,0.700,AutoCalculate,MIDRISEAPARTMENT ACTIVITY,No,3.8200E-008,0,1
 People Internal Gains Nominal, THERMAL ZONE: UNIT_0217 APARTMENT PEOPLE,MIDRISEAPARTMENT APARTMENT OCC,THERMAL ZONE: UNIT_0217,25.78,1.0,1.0,3.878E-002,25.784,0.300,0.700,AutoCalculate,MIDRISEAPARTMENT ACTIVITY,No,3.8200E-008,0,1
 People Internal Gains Nominal, THERMAL ZONE: UNIT_0218 APARTMENT PEOPLE,MIDRISEAPARTMENT APARTMENT OCC,THERMAL ZONE: UNIT_0218,25.96,1.0,1.0,3.852E-002,25.963,0.300,0.700,AutoCalculate,MIDRISEAPARTMENT ACTIVITY,No,3.8200E-008,0,1
 People Internal Gains Nominal, THERMAL ZONE: UNIT_0219_4B APARTMENT PEOPLE,MIDRISEAPARTMENT APARTMENT OCC,THERMAL ZONE: UNIT_0219_4B,104.71,1.0,1.0,9.550E-003,104.712,0.300,0.700,AutoCalculate,MIDRISEAPARTMENT ACTIVITY,No,3.8200E-008,0,1
 People Internal Gains Nominal, THERMAL ZONE: UNIT_0301_4B APARTMENT PEOPLE,MIDRISEAPARTMENT APARTMENT OCC,THERMAL ZONE: UNIT_0301_4B,105.37,1.0,1.0,9.490E-003,105.374,0.300,0.700,AutoCalculate,MIDRISEAPARTMENT ACTIVITY,No,3.8200E-008,0,1
 People Internal Gains Nominal, THERMAL ZONE: UNIT_0302 APARTMENT PEOPLE,MIDRISEAPARTMENT APARTMENT OCC,THERMAL ZONE: UNIT_0302,24.80,1.0,1.0,4.033E-002,24.795,0.300,0.700,AutoCalculate,MIDRISEAPARTMENT ACTIVITY,No,3.8200E-008,0,1
 People Internal Gains Nominal, THERMAL ZONE: UNIT_0303 APARTMENT PEOPLE,MIDRISEAPARTMENT APARTMENT OCC,THERMAL ZONE: UNIT_0303,27.08,1.0,1.0,3.693E-002,27.075,0.300,0.700,AutoCalculate,MIDRISEAPARTMENT ACTIVITY,No,3.8200E-008,0,1
 People Internal Gains Nominal, THERMAL ZONE: UNIT_0304 APARTMENT PEOPLE,MIDRISEAPARTMENT APARTMENT OCC,THERMAL ZONE: UNIT_0304,27.09,1.0,1.0,3.692E-002,27.086,0.300,0.700,AutoCalculate,MIDRISEAPARTMENT ACTIVITY,No,3.8200E-008,0,1
 People Internal Gains Nominal, THERMAL ZONE: UNIT_0305 APARTMENT PEOPLE,MIDRISEAPARTMENT APARTMENT OCC,THERMAL ZONE: UNIT_0305,25.78,1.0,1.0,3.878E-002,25.784,0.300,0.700,AutoCalculate,MIDRISEAPARTMENT ACTIVITY,No,3.8200E-008,0,1
 People Internal Gains Nominal, THERMAL ZONE: UNIT_0306 APARTMENT PEOPLE,MIDRISEAPARTMENT APARTMENT OCC,THERMAL ZONE: UNIT_0306,25.82,1.0,1.0,3.873E-002,25.817,0.300,0.700,AutoCalculate,MIDRISEAPARTMENT ACTIVITY,No,3.8200E-008,0,1
 People Internal Gains Nominal, THERMAL ZONE: UNIT_0307_3B APARTMENT PEOPLE,MIDRISEAPARTMENT APARTMENT OCC,THERMAL ZONE: UNIT_0307_3B,83.88,1.0,1.0,1.192E-002,83.881,0.300,0.700,AutoCalculate,MIDRISEAPARTMENT ACTIVITY,No,3.8200E-008,0,1
 People Internal Gains Nominal, THERMAL ZONE: UNIT_0308 APARTMENT PEOPLE,MIDRISEAPARTMENT APARTMENT OCC,THERMAL ZONE: UNIT_0308,40.71,1.0,1.0,2.456E-002,40.714,0.300,0.700,AutoCalculate,MIDRISEAPARTMENT ACTIVITY,No,3.8200E-008,0,1
 People Internal Gains Nominal, THERMAL ZONE: UNIT_0309_2B APARTMENT PEOPLE,MIDRISEAPARTMENT APARTMENT OCC,THERMAL ZONE: UNIT_0309_2B,54.28,1.0,1.0,1.842E-002,54.279,0.300,0.700,AutoCalculate,MIDRISEAPARTMENT ACTIVITY,No,3.8200E-008,0,1
 People Internal Gains Nominal, THERMAL ZONE: UNIT_0310 APARTMENT PEOPLE,MIDRISEAPARTMENT APARTMENT OCC,THERMAL ZONE: UNIT_0310,26.41,1.0,1.0,3.786E-002,26.413,0.300,0.700,AutoCalculate,MIDRISEAPARTMENT ACTIVITY,No,3.8200E-008,0,1
 People Internal Gains Nominal, THERMAL ZONE: UNIT_0311 APARTMENT PEOPLE,MIDRISEAPARTMENT APARTMENT OCC,THERMAL ZONE: UNIT_0311,25.85,1.0,1.0,3.868E-002,25.854,0.300,0.700,AutoCalculate,MIDRISEAPARTMENT ACTIVITY,No,3.8200E-008,0,1
 People Internal Gains Nominal, THERMAL ZONE: UNIT_0312 APARTMENT PEOPLE,MIDRISEAPARTMENT APARTMENT OCC,THERMAL ZONE: UNIT_0312,25.89,1.0,1.0,3.862E-002,25.893,0.300,0.700,AutoCalculate,MIDRISEAPARTMENT ACTIVITY,No,3.8200E-008,0,1
 People Internal Gains Nominal, THERMAL ZONE: UNIT_0313 APARTMENT PEOPLE,MIDRISEAPARTMENT APARTMENT OCC,THERMAL ZONE: UNIT_0313,25.78,1.0,1.0,3.878E-002,25.784,0.300,0.700,AutoCalculate,MIDRISEAPARTMENT ACTIVITY,No,3.8200E-008,0,1
 People Internal Gains Nominal, THERMAL ZONE: UNIT_0314 APARTMENT PEOPLE,MIDRISEAPARTMENT APARTMENT OCC,THERMAL ZONE: UNIT_0314,25.96,1.0,1.0,3.852E-002,25.963,0.300,0.700,AutoCalculate,MIDRISEAPARTMENT ACTIVITY,No,3.8200E-008,0,1
 People Internal Gains Nominal, THERMAL ZONE: UNIT_0315 APARTMENT PEOPLE,MIDRISEAPARTMENT APARTMENT OCC,THERMAL ZONE: UNIT_0315,25.78,1.0,1.0,3.878E-002,25.784,0.300,0.700,AutoCalculate,MIDRISEAPARTMENT ACTIVITY,No,3.8200E-008,0,1
 People Internal Gains Nominal, THERMAL ZONE: UNIT_0316 APARTMENT PEOPLE,MIDRISEAPARTMENT APARTMENT OCC,THERMAL ZONE: UNIT_0316,25.96,1.0,1.0,3.852E-002,25.963,0.300,0.700,AutoCalculate,MIDRISEAPARTMENT ACTIVITY,No,3.8200E-008,0,1
 People Internal Gains Nominal, THERMAL ZONE: UNIT_0317_4B APARTMENT PEOPLE,MIDRISEAPARTMENT APARTMENT OCC,THERMAL ZONE: UNIT_0317_4B,104.71,1.0,1.0,9.550E-003,104.712,0.300,0.700,AutoCalculate,MIDRISEAPARTMENT ACTIVITY,No,3.8200E-008,0,1
 People Internal Gains Nominal, THERMAL ZONE: UNIT_0401_4B APARTMENT PEOPLE,MIDRISEAPARTMENT APARTMENT OCC,THERMAL ZONE: UNIT_0401_4B,105.37,1.0,1.0,9.490E-003,105.374,0.300,0.700,AutoCalculate,MIDRISEAPARTMENT ACTIVITY,No,3.8200E-008,0,1
 People Internal Gains Nominal, THERMAL ZONE: UNIT_0402 APARTMENT PEOPLE,MIDRISEAPARTMENT APARTMENT OCC,THERMAL ZONE: UNIT_0402,24.80,1.0,1.0,4.033E-002,24.795,0.300,0.700,AutoCalculate,MIDRISEAPARTMENT ACTIVITY,No,3.8200E-008,0,1
 People Internal Gains Nominal, THERMAL ZONE: UNIT_0403 APARTMENT PEOPLE,MIDRISEAPARTMENT APARTMENT OCC,THERMAL ZONE: UNIT_0403,27.08,1.0,1.0,3.693E-002,27.075,0.300,0.700,AutoCalculate,MIDRISEAPARTMENT ACTIVITY,No,3.8200E-008,0,1
 People Internal Gains Nominal, THERMAL ZONE: UNIT_0404 APARTMENT PEOPLE,MIDRISEAPARTMENT APARTMENT OCC,THERMAL ZONE: UNIT_0404,27.09,1.0,1.0,3.692E-002,27.086,0.300,0.700,AutoCalculate,MIDRISEAPARTMENT ACTIVITY,No,3.8200E-008,0,1
 People Internal Gains Nominal, THERMAL ZONE: UNIT_0405 APARTMENT PEOPLE,MIDRISEAPARTMENT APARTMENT OCC,THERMAL ZONE: UNIT_0405,25.78,1.0,1.0,3.878E-002,25.784,0.300,0.700,AutoCalculate,MIDRISEAPARTMENT ACTIVITY,No,3.8200E-008,0,1
 People Internal Gains Nominal, THERMAL ZONE: UNIT_0406 APARTMENT PEOPLE,MIDRISEAPARTMENT APARTMENT OCC,THERMAL ZONE: UNIT_0406,25.82,1.0,1.0,3.873E-002,25.817,0.300,0.700,AutoCalculate,MIDRISEAPARTMENT ACTIVITY,No,3.8200E-008,0,1
 People Internal Gains Nominal, THERMAL ZONE: UNIT_0407_3B APARTMENT PEOPLE,MIDRISEAPARTMENT APARTMENT OCC,THERMAL ZONE: UNIT_0407_3B,83.88,1.0,1.0,1.192E-002,83.881,0.300,0.700,AutoCalculate,MIDRISEAPARTMENT ACTIVITY,No,3.8200E-008,0,1
 People Internal Gains Nominal, THERMAL ZONE: UNIT_0408 APARTMENT PEOPLE,MIDRISEAPARTMENT APARTMENT OCC,THERMAL ZONE: UNIT_0408,40.71,1.0,1.0,2.456E-002,40.714,0.300,0.700,AutoCalculate,MIDRISEAPARTMENT ACTIVITY,No,3.8200E-008,0,1
 People Internal Gains Nominal, THERMAL ZONE: UNIT_0409_2B APARTMENT PEOPLE,MIDRISEAPARTMENT APARTMENT OCC,THERMAL ZONE: UNIT_0409_2B,54.28,1.0,1.0,1.842E-002,54.279,0.300,0.700,AutoCalculate,MIDRISEAPARTMENT ACTIVITY,No,3.8200E-008,0,1
 People Internal Gains Nominal, THERMAL ZONE: UNIT_0410 APARTMENT PEOPLE,MIDRISEAPARTMENT APARTMENT OCC,THERMAL ZONE: UNIT_0410,26.41,1.0,1.0,3.786E-002,26.413,0.300,0.700,AutoCalculate,MIDRISEAPARTMENT ACTIVITY,No,3.8200E-008,0,1
 People Internal Gains Nominal, THERMAL ZONE: UNIT_0411 APARTMENT PEOPLE,MIDRISEAPARTMENT APARTMENT OCC,THERMAL ZONE: UNIT_0411,25.85,1.0,1.0,3.868E-002,25.854,0.300,0.700,AutoCalculate,MIDRISEAPARTMENT ACTIVITY,No,3.8200E-008,0,1
 People Internal Gains Nominal, THERMAL ZONE: UNIT_0412 APARTMENT PEOPLE,MIDRISEAPARTMENT APARTMENT OCC,THERMAL ZONE: UNIT_0412,25.89,1.0,1.0,3.862E-002,25.893,0.300,0.700,AutoCalculate,MIDRISEAPARTMENT ACTIVITY,No,3.8200E-008,0,1
 People Internal Gains Nominal, THERMAL ZONE: UNIT_0413 APARTMENT PEOPLE,MIDRISEAPARTMENT APARTMENT OCC,THERMAL ZONE: UNIT_0413,25.78,1.0,1.0,3.878E-002,25.784,0.300,0.700,AutoCalculate,MIDRISEAPARTMENT ACTIVITY,No,3.8200E-008,0,1
 People Internal Gains Nominal, THERMAL ZONE: UNIT_0414 APARTMENT PEOPLE,MIDRISEAPARTMENT APARTMENT OCC,THERMAL ZONE: UNIT_0414,25.96,1.0,1.0,3.852E-002,25.963,0.300,0.700,AutoCalculate,MIDRISEAPARTMENT ACTIVITY,No,3.8200E-008,0,1
 People Internal Gains Nominal, THERMAL ZONE: UNIT_0415 APARTMENT PEOPLE,MIDRISEAPARTMENT APARTMENT OCC,THERMAL ZONE: UNIT_0415,25.78,1.0,1.0,3.878E-002,25.784,0.300,0.700,AutoCalculate,MIDRISEAPARTMENT ACTIVITY,No,3.8200E-008,0,1
 People Internal Gains Nominal, THERMAL ZONE: UNIT_0416 APARTMENT PEOPLE,MIDRISEAPARTMENT APARTMENT OCC,THERMAL ZONE: UNIT_0416,25.96,1.0,1.0,3.852E-002,25.963,0.300,0.700,AutoCalculate,MIDRISEAPARTMENT ACTIVITY,No,3.8200E-008,0,1
 People Internal Gains Nominal, THERMAL ZONE: UNIT_0417_4B APARTMENT PEOPLE,MIDRISEAPARTMENT APARTMENT OCC,THERMAL ZONE: UNIT_0417_4B,104.71,1.0,1.0,9.550E-003,104.712,0.300,0.700,AutoCalculate,MIDRISEAPARTMENT ACTIVITY,No,3.8200E-008,0,1
 People Internal Gains Nominal, THERMAL ZONE: UNIT_0501_4B APARTMENT PEOPLE,MIDRISEAPARTMENT APARTMENT OCC,THERMAL ZONE: UNIT_0501_4B,105.37,1.0,1.0,9.490E-003,105.374,0.300,0.700,AutoCalculate,MIDRISEAPARTMENT ACTIVITY,No,3.8200E-008,0,1
 People Internal Gains Nominal, THERMAL ZONE: UNIT_0502 APARTMENT PEOPLE,MIDRISEAPARTMENT APARTMENT OCC,THERMAL ZONE: UNIT_0502,24.80,1.0,1.0,4.033E-002,24.795,0.300,0.700,AutoCalculate,MIDRISEAPARTMENT ACTIVITY,No,3.8200E-008,0,1
[...]
 Warmup Convergence Information,THERMAL ZONE: STAIR_0301,RunPeriod: RUN PERIOD 1,9.3518518519E-002,0.2713459173,Pass,Pass,0.1685290194,0.2304451728,Pass,Pass
 Warmup Convergence Information,THERMAL ZONE: STAIR_0302,RunPeriod: RUN PERIOD 1,9.6662634313E-002,0.2712027164,Pass,Pass,0.1838391797,0.2142387011,Pass,Pass
 Warmup Convergence Information,THERMAL ZONE: STAIR_0401,RunPeriod: RUN PERIOD 1,9.3518518519E-002,0.2712713520,Pass,Pass,0.1719785186,0.2285045874,Pass,Pass
 Warmup Convergence Information,THERMAL ZONE: STAIR_0402,RunPeriod: RUN PERIOD 1,9.7058818641E-002,0.2714336700,Pass,Pass,0.1871969704,0.2173445632,Pass,Pass
 Warmup Convergence Information,THERMAL ZONE: STAIR_0501,RunPeriod: RUN PERIOD 1,9.3518518519E-002,0.2713280415,Pass,Pass,0.1718572794,0.2235997799,Pass,Pass
 Warmup Convergence Information,THERMAL ZONE: STAIR_0502,RunPeriod: RUN PERIOD 1,9.7457169163E-002,0.2716285897,Pass,Pass,0.1839545663,0.2176479487,Pass,Pass
 Warmup Convergence Information,THERMAL ZONE: STAIR_2101,RunPeriod: RUN PERIOD 1,9.3518518519E-002,0.2668320530,Pass,Pass,0.1523036873,0.2196076637,Pass,Pass
 Warmup Convergence Information,THERMAL ZONE: STAIR_2102,RunPeriod: RUN PERIOD 1,9.3518518519E-002,0.2655269283,Pass,Pass,0.1674429659,0.1988444402,Pass,Pass
 Warmup Convergence Information,THERMAL ZONE: STAIR_2201,RunPeriod: RUN PERIOD 1,9.3518518519E-002,0.2823239006,Pass,Pass,0.2852353267,0.7216484606,Pass,Pass
 Warmup Convergence Information,THERMAL ZONE: STAIR_2202,RunPeriod: RUN PERIOD 1,9.3518518519E-002,0.2845663969,Pass,Pass,0.4173546525,0.5415360203,Pass,Pass
 Warmup Convergence Information,THERMAL ZONE: STAIR_2301,RunPeriod: RUN PERIOD 1,9.3518508382E-002,0.2903145269,Pass,Pass,5.1990982719E-002,3.3998393549E-002,Pass,Pass
 Warmup Convergence Information,THERMAL ZONE: STAIR_2302,RunPeriod: RUN PERIOD 1,9.3518507599E-002,0.2902987880,Pass,Pass,5.6736416281E-002,3.5869406294E-002,Pass,Pass
 Warmup Convergence Information,THERMAL ZONE: STAIR_P101,RunPeriod: RUN PERIOD 1,9.3518514840E-002,0.2925267754,Pass,Pass,5.2376619393E-002,3.4189307981E-002,Pass,Pass
 Warmup Convergence Information,THERMAL ZONE: STAIR_P102,RunPeriod: RUN PERIOD 1,9.3518514114E-002,0.2923636513,Pass,Pass,5.9051316703E-002,3.8939775887E-002,Pass,Pass
 Warmup Convergence Information,THERMAL ZONE: STAIR_P201,RunPeriod: RUN PERIOD 1,9.3518515598E-002,0.2928343574,Pass,Pass,5.3594959583E-002,3.6017494623E-002,Pass,Pass
 Warmup Convergence Information,THERMAL ZONE: STAIR_P202,RunPeriod: RUN PERIOD 1,9.3518514551E-002,0.2922994033,Pass,Pass,6.2334851492E-002,4.0919048327E-002,Pass,Pass
 Warmup Convergence Information,THERMAL ZONE: STOR_0100,RunPeriod: RUN PERIOD 1,9.3518518519E-002,0.2994140951,Pass,Pass,0.1110909632,0.1930427151,Pass,Pass
 Warmup Convergence Information,THERMAL ZONE: STOR_0200,RunPeriod: RUN PERIOD 1,9.3518518519E-002,0.3047610041,Pass,Pass,8.5211769310E-002,0.1188686569,Pass,Pass
 Warmup Convergence Information,THERMAL ZONE: STOR_0300,RunPeriod: RUN PERIOD 1,9.3518518519E-002,0.3047508452,Pass,Pass,8.9742866085E-002,0.1176809761,Pass,Pass
 Warmup Convergence Information,THERMAL ZONE: STOR_0400,RunPeriod: RUN PERIOD 1,9.3518518519E-002,0.3047473675,Pass,Pass,9.0053202412E-002,0.1173331024,Pass,Pass
 Warmup Convergence Information,THERMAL ZONE: STOR_0500,RunPeriod: RUN PERIOD 1,9.3518518519E-002,0.3047377193,Pass,Pass,9.0189231190E-002,0.1168350970,Pass,Pass
 Warmup Convergence Information,THERMAL ZONE: STOR_2100,RunPeriod: RUN PERIOD 1,9.3518518519E-002,0.3051271768,Pass,Pass,8.8129941805E-002,0.1320509233,Pass,Pass
 Warmup Convergence Information,THERMAL ZONE: STOR_P100,RunPeriod: RUN PERIOD 1,9.3518518056E-002,0.2968591165,Pass,Pass,5.4173494543E-002,4.3213184767E-002,Pass,Pass
 Warmup Convergence Information,THERMAL ZONE: STOR_P200,RunPeriod: RUN PERIOD 1,9.3518518107E-002,0.2969752854,Pass,Pass,5.4866751840E-002,4.3547499710E-002,Pass,Pass
 Warmup Convergence Information,THERMAL ZONE: TRASH_0200,RunPeriod: RUN PERIOD 1,9.3518517523E-002,0.2966419344,Pass,Pass,5.2032747042E-002,3.9402798448E-002,Pass,Pass
 Warmup Convergence Information,THERMAL ZONE: TRASH_0300,RunPeriod: RUN PERIOD 1,9.3518518519E-002,0.3043838147,Pass,Pass,7.1270509642E-002,0.1026127372,Pass,Pass
 Warmup Convergence Information,THERMAL ZONE: TRASH_0400,RunPeriod: RUN PERIOD 1,9.3518518519E-002,0.3044094021,Pass,Pass,7.2556614099E-002,0.1026168877,Pass,Pass
 Warmup Convergence Information,THERMAL ZONE: TRASH_0500,RunPeriod: RUN PERIOD 1,9.3518518519E-002,0.3044045417,Pass,Pass,7.2540496929E-002,0.1022485988,Pass,Pass
 Warmup Convergence Information,THERMAL ZONE: TRASH_2100,RunPeriod: RUN PERIOD 1,9.3518518519E-002,0.3047174499,Pass,Pass,7.2919371475E-002,0.1124281039,Pass,Pass
 Warmup Convergence Information,THERMAL ZONE: TRASH_2200,RunPeriod: RUN PERIOD 1,9.3518518183E-002,0.2976567189,Pass,Pass,5.4803628506E-002,4.4667902478E-002,Pass,Pass
 Warmup Convergence Information,THERMAL ZONE: UNIT_0201_4B,RunPeriod: RUN PERIOD 1,9.3518518503E-002,0.3013709363,Pass,Pass,5.1630970644E-002,4.4588210646E-002,Pass,Pass
 Warmup Convergence Information,THERMAL ZONE: UNIT_0202,RunPeriod: RUN PERIOD 1,9.3518518514E-002,0.3025092827,Pass,Pass,5.8488919255E-002,5.8499199785E-002,Pass,Pass
 Warmup Convergence Information,THERMAL ZONE: UNIT_0203,RunPeriod: RUN PERIOD 1,9.3518518514E-002,0.3024616234,Pass,Pass,5.4775463221E-002,5.7830178760E-002,Pass,Pass
 Warmup Convergence Information,THERMAL ZONE: UNIT_0204,RunPeriod: RUN PERIOD 1,9.3518518508E-002,0.3016015404,Pass,Pass,5.6018518109E-002,5.2842143530E-002,Pass,Pass
 Warmup Convergence Information,THERMAL ZONE: UNIT_0205,RunPeriod: RUN PERIOD 1,9.3518518509E-002,0.3016534844,Pass,Pass,5.5489660313E-002,5.3211211832E-002,Pass,Pass
 Warmup Convergence Information,THERMAL ZONE: UNIT_0206,RunPeriod: RUN PERIOD 1,9.3518518518E-002,0.3037931890,Pass,Pass,6.3400243492E-002,6.9019616461E-002,Pass,Pass
 Warmup Convergence Information,THERMAL ZONE: UNIT_0207,RunPeriod: RUN PERIOD 1,9.3518518518E-002,0.3045384642,Pass,Pass,7.3205193401E-002,8.2651378653E-002,Pass,Pass
 Warmup Convergence Information,THERMAL ZONE: UNIT_0208,RunPeriod: RUN PERIOD 1,9.3518518518E-002,0.3047446712,Pass,Pass,8.2165716130E-002,8.0768667266E-002,Pass,Pass
 Warmup Convergence Information,THERMAL ZONE: UNIT_0209_3B,RunPeriod: RUN PERIOD 1,0.2067482600,0.3715838017,Pass,Pass,1.0482513226,4.3929103657,Pass,Pass
 Warmup Convergence Information,THERMAL ZONE: UNIT_0210,RunPeriod: RUN PERIOD 1,0.1561178129,0.3146510720,Pass,Pass,0.1858396336,0.2593954777,Pass,Pass
 Warmup Convergence Information,THERMAL ZONE: UNIT_0211_2B,RunPeriod: RUN PERIOD 1,0.2024771191,0.3631713377,Pass,Pass,0.1791778021,0.3181349649,Pass,Pass
 Warmup Convergence Information,THERMAL ZONE: UNIT_0212,RunPeriod: RUN PERIOD 1,9.3518518518E-002,0.3042054186,Pass,Pass,0.1103420850,9.1780217715E-002,Pass,Pass
 Warmup Convergence Information,THERMAL ZONE: UNIT_0213,RunPeriod: RUN PERIOD 1,9.3518518518E-002,0.3037272103,Pass,Pass,0.1108752795,0.1117694872,Pass,Pass
 Warmup Convergence Information,THERMAL ZONE: UNIT_0214,RunPeriod: RUN PERIOD 1,9.3518518518E-002,0.3038827522,Pass,Pass,0.1030052940,9.9855191942E-002,Pass,Pass
 Warmup Convergence Information,THERMAL ZONE: UNIT_0215,RunPeriod: RUN PERIOD 1,9.3518518518E-002,0.3039393736,Pass,Pass,8.6029104380E-002,8.3733907853E-002,Pass,Pass
 Warmup Convergence Information,THERMAL ZONE: UNIT_0216,RunPeriod: RUN PERIOD 1,9.3518518518E-002,0.3040610083,Pass,Pass,8.6062060010E-002,8.5085683897E-002,Pass,Pass
 Warmup Convergence Information,THERMAL ZONE: UNIT_0217,RunPeriod: RUN PERIOD 1,9.3518518518E-002,0.3044188292,Pass,Pass,8.9114086884E-002,9.1038848392E-002,Pass,Pass
 Warmup Convergence Information,THERMAL ZONE: UNIT_0218,RunPeriod: RUN PERIOD 1,9.3518518518E-002,0.3043737891,Pass,Pass,8.8171747127E-002,9.0737946574E-002,Pass,Pass
 Warmup Convergence Information,THERMAL ZONE: UNIT_0219_4B,RunPeriod: RUN PERIOD 1,9.3518518517E-002,0.3033262822,Pass,Pass,5.8109226373E-002,6.1034613254E-002,Pass,Pass
 Warmup Convergence Information,THERMAL ZONE: UNIT_0301_4B,RunPeriod: RUN PERIOD 1,9.3518518518E-002,0.3036460848,Pass,Pass,5.7288617191E-002,5.8599809877E-002,Pass,Pass
 Warmup Convergence Information,THERMAL ZONE: UNIT_0302,RunPeriod: RUN PERIOD 1,9.3518518518E-002,0.3045766995,Pass,Pass,6.9944466516E-002,8.1856407403E-002,Pass,Pass
 Warmup Convergence Information,THERMAL ZONE: UNIT_0303,RunPeriod: RUN PERIOD 1,9.3518518518E-002,0.3036709792,Pass,Pass,6.6552973969E-002,7.0147452113E-002,Pass,Pass
 Warmup Convergence Information,THERMAL ZONE: UNIT_0304,RunPeriod: RUN PERIOD 1,9.3518518518E-002,0.3036812879,Pass,Pass,6.2394216062E-002,6.9260415886E-002,Pass,Pass
 Warmup Convergence Information,THERMAL ZONE: UNIT_0305,RunPeriod: RUN PERIOD 1,9.3518518518E-002,0.3047391428,Pass,Pass,6.9642520027E-002,7.9996652049E-002,Pass,Pass
 Warmup Convergence Information,THERMAL ZONE: UNIT_0306,RunPeriod: RUN PERIOD 1,9.3518518518E-002,0.3049064258,Pass,Pass,7.9261571704E-002,8.1389038766E-002,Pass,Pass
 Warmup Convergence Information,THERMAL ZONE: UNIT_0307_3B,RunPeriod: RUN PERIOD 1,0.1219664493,0.3076960162,Pass,Pass,0.4862482943,1.6395895799,Pass,Pass
 Warmup Convergence Information,THERMAL ZONE: UNIT_0308,RunPeriod: RUN PERIOD 1,0.1115215933,0.3049383266,Pass,Pass,0.2768736771,0.5551153871,Pass,Pass
 Warmup Convergence Information,THERMAL ZONE: UNIT_0309_2B,RunPeriod: RUN PERIOD 1,9.9352142302E-002,0.3018588488,Pass,Pass,0.6625123871,2.2273540519,Pass,Pass
 Warmup Convergence Information,THERMAL ZONE: UNIT_0310,RunPeriod: RUN PERIOD 1,9.3518518518E-002,0.3046928695,Pass,Pass,8.9190366874E-002,8.5357309522E-002,Pass,Pass
 Warmup Convergence Information,THERMAL ZONE: UNIT_0311,RunPeriod: RUN PERIOD 1,9.3518518518E-002,0.3043093813,Pass,Pass,9.2322057327E-002,9.2743576873E-002,Pass,Pass
 Warmup Convergence Information,THERMAL ZONE: UNIT_0312,RunPeriod: RUN PERIOD 1,9.3518518518E-002,0.3042904508,Pass,Pass,9.2469707492E-002,9.2885921646E-002,Pass,Pass
 Warmup Convergence Information,THERMAL ZONE: UNIT_0313,RunPeriod: RUN PERIOD 1,9.3518518518E-002,0.3043504498,Pass,Pass,9.0574171585E-002,9.1609074747E-002,Pass,Pass
 Warmup Convergence Information,THERMAL ZONE: UNIT_0314,RunPeriod: RUN PERIOD 1,9.3518518518E-002,0.3043590011,Pass,Pass,9.0341421405E-002,9.1242035037E-002,Pass,Pass
 Warmup Convergence Information,THERMAL ZONE: UNIT_0315,RunPeriod: RUN PERIOD 1,9.3518518518E-002,0.3042837397,Pass,Pass,9.2845329174E-002,9.3143709880E-002,Pass,Pass
 Warmup Convergence Information,THERMAL ZONE: UNIT_0316,RunPeriod: RUN PERIOD 1,9.3518518518E-002,0.3042188929,Pass,Pass,9.1993030587E-002,9.2819406488E-002,Pass,Pass
 Warmup Convergence Information,THERMAL ZONE: UNIT_0317_4B,RunPeriod: RUN PERIOD 1,9.3518518518E-002,0.3035203311,Pass,Pass,6.0997732740E-002,6.3373435140E-002,Pass,Pass
 Warmup Convergence Information,THERMAL ZONE: UNIT_0401_4B,RunPeriod: RUN PERIOD 1,9.3518518518E-002,0.3035408936,Pass,Pass,5.6716679936E-002,5.7116741039E-002,Pass,Pass
 Warmup Convergence Information,THERMAL ZONE: UNIT_0402,RunPeriod: RUN PERIOD 1,9.3518518518E-002,0.3044907477,Pass,Pass,7.0710357320E-002,8.1234495924E-002,Pass,Pass
 Warmup Convergence Information,THERMAL ZONE: UNIT_0403,RunPeriod: RUN PERIOD 1,9.3518518518E-002,0.3035958796,Pass,Pass,6.5167702612E-002,7.0650797216E-002,Pass,Pass
 Warmup Convergence Information,THERMAL ZONE: UNIT_0404,RunPeriod: RUN PERIOD 1,9.3518518518E-002,0.3036026485,Pass,Pass,6.2359468312E-002,6.8381067452E-002,Pass,Pass
 Warmup Convergence Information,THERMAL ZONE: UNIT_0405,RunPeriod: RUN PERIOD 1,9.3518518518E-002,0.3046859627,Pass,Pass,6.9733559240E-002,7.9412250699E-002,Pass,Pass
 Warmup Convergence Information,THERMAL ZONE: UNIT_0406,RunPeriod: RUN PERIOD 1,9.3518518518E-002,0.3048784943,Pass,Pass,7.8835798780E-002,8.1201357369E-002,Pass,Pass
 Warmup Convergence Information,THERMAL ZONE: UNIT_0407_3B,RunPeriod: RUN PERIOD 1,0.1602091793,0.3217052471,Pass,Pass,0.1596040081,0.2538251428,Pass,Pass
 Warmup Convergence Information,THERMAL ZONE: UNIT_0408,RunPeriod: RUN PERIOD 1,0.1422517887,0.3094847710,Pass,Pass,0.1793752541,0.2194786646,Pass,Pass
 Warmup Convergence Information,THERMAL ZONE: UNIT_0409_2B,RunPeriod: RUN PERIOD 1,0.1362659588,0.3060526046,Pass,Pass,0.3639858918,1.0404005959,Pass,Pass
 Warmup Convergence Information,THERMAL ZONE: UNIT_0410,RunPeriod: RUN PERIOD 1,9.3518518518E-002,0.3046342042,Pass,Pass,9.3121132194E-002,8.6070041964E-002,Pass,Pass
 Warmup Convergence Information,THERMAL ZONE: UNIT_0411,RunPeriod: RUN PERIOD 1,9.3518518518E-002,0.3041885007,Pass,Pass,9.7053751227E-002,9.6371856577E-002,Pass,Pass
 Warmup Convergence Information,THERMAL ZONE: UNIT_0412,RunPeriod: RUN PERIOD 1,9.3518518518E-002,0.3041602254,Pass,Pass,9.7149843948E-002,9.6669373977E-002,Pass,Pass
 Warmup Convergence Information,THERMAL ZONE: UNIT_0413,RunPeriod: RUN PERIOD 1,9.3518518518E-002,0.3042336937,Pass,Pass,9.4898017933E-002,9.4363689286E-002,Pass,Pass
 Warmup Convergence Information,THERMAL ZONE: UNIT_0414,RunPeriod: RUN PERIOD 1,9.3518518518E-002,0.3042346942,Pass,Pass,9.4656711921E-002,9.4066162454E-002,Pass,Pass
 Warmup Convergence Information,THERMAL ZONE: UNIT_0415,RunPeriod: RUN PERIOD 1,9.3518518518E-002,0.3041406298,Pass,Pass,9.7514733458E-002,9.7143672537E-002,Pass,Pass
 Warmup Convergence Information,THERMAL ZONE: UNIT_0416,RunPeriod: RUN PERIOD 1,9.3518518518E-002,0.3040685640,Pass,Pass,9.7121395699E-002,9.6275364618E-002,Pass,Pass
 Warmup Convergence Information,THERMAL ZONE: UNIT_0417_4B,RunPeriod: RUN PERIOD 1,9.3518518518E-002,0.3033737749,Pass,Pass,6.2303237553E-002,6.1906721814E-002,Pass,Pass
 Warmup Convergence Information,THERMAL ZONE: UNIT_0501_4B,RunPeriod: RUN PERIOD 1,9.3518518518E-002,0.3035334694,Pass,Pass,5.6524994996E-002,5.7068157416E-002,Pass,Pass
 Warmup Convergence Information,THERMAL ZONE: UNIT_0502,RunPeriod: RUN PERIOD 1,9.3518518518E-002,0.3044751715,Pass,Pass,7.0093365696E-002,8.0518767309E-002,Pass,Pass
 Warmup Convergence Information,THERMAL ZONE: UNIT_0503,RunPeriod: RUN PERIOD 1,9.3518518518E-002,0.3035816376,Pass,Pass,6.7096197142E-002,6.9410713547E-002,Pass,Pass
 Warmup Convergence Information,THERMAL ZONE: UNIT_0504,RunPeriod: RUN PERIOD 1,9.3518518518E-002,0.3035846446,Pass,Pass,6.1996007304E-002,6.7872646278E-002,Pass,Pass
 Warmup Convergence Information,THERMAL ZONE: UNIT_0505,RunPeriod: RUN PERIOD 1,9.3518518518E-002,0.3046716335,Pass,Pass,6.9214074741E-002,7.8952904541E-002,Pass,Pass
 Warmup Convergence Information,THERMAL ZONE: UNIT_0506,RunPeriod: RUN PERIOD 1,9.3518518518E-002,0.3048654525,Pass,Pass,7.8053524910E-002,8.1056093268E-002,Pass,Pass
 Warmup Convergence Information,THERMAL ZONE: UNIT_0507_3B,RunPeriod: RUN PERIOD 1,0.1508988071,0.3180553520,Pass,Pass,0.1528423684,0.2306039202,Pass,Pass
 Warmup Convergence Information,THERMAL ZONE: UNIT_0508,RunPeriod: RUN PERIOD 1,0.1349780974,0.3079006267,Pass,Pass,0.1726433146,0.2088105017,Pass,Pass
 Warmup Convergence Information,THERMAL ZONE: UNIT_0509_2B,RunPeriod: RUN PERIOD 1,0.1270285889,0.3031609003,Pass,Pass,0.2654994899,0.5975281462,Pass,Pass
 Warmup Convergence Information,THERMAL ZONE: UNIT_0510,RunPeriod: RUN PERIOD 1,9.3518518518E-002,0.3046214689,Pass,Pass,9.2725116936E-002,8.6353697311E-002,Pass,Pass
 Warmup Convergence Information,THERMAL ZONE: UNIT_0511,RunPeriod: RUN PERIOD 1,9.3518518518E-002,0.3041721313,Pass,Pass,9.6693903634E-002,9.6235087994E-002,Pass,Pass
 Warmup Convergence Information,THERMAL ZONE: UNIT_0512,RunPeriod: RUN PERIOD 1,9.3518518518E-002,0.3041432074,Pass,Pass,9.6800901099E-002,9.6567474808E-002,Pass,Pass
 Warmup Convergence Information,THERMAL ZONE: UNIT_0513,RunPeriod: RUN PERIOD 1,9.3518518518E-002,0.3042175226,Pass,Pass,9.4577701886E-002,9.4275303902E-002,Pass,Pass
 Warmup Convergence Information,THERMAL ZONE: UNIT_0514,RunPeriod: RUN PERIOD 1,9.3518518518E-002,0.3042185867,Pass,Pass,9.4336699246E-002,9.3983743519E-002,Pass,Pass
 Warmup Convergence Information,THERMAL ZONE: UNIT_0515,RunPeriod: RUN PERIOD 1,9.3518518518E-002,0.3041227431,Pass,Pass,9.7134261437E-002,9.7019411650E-002,Pass,Pass
 Warmup Convergence Information,THERMAL ZONE: UNIT_0516,RunPeriod: RUN PERIOD 1,9.3518518518E-002,0.3040511065,Pass,Pass,9.6938620161E-002,9.6000513873E-002,Pass,Pass
 Warmup Convergence Information,THERMAL ZONE: UNIT_0517_4B,RunPeriod: RUN PERIOD 1,9.3518518518E-002,0.3033646032,Pass,Pass,6.2307679174E-002,6.2031282013E-002,Pass,Pass
 Warmup Convergence Information,THERMAL ZONE: UNIT_2101_4B,RunPeriod: RUN PERIOD 1,9.3518518514E-002,0.3022990891,Pass,Pass,5.1109295818E-002,4.8803865289E-002,Pass,Pass
 Warmup Convergence Information,THERMAL ZONE: UNIT_2102,RunPeriod: RUN PERIOD 1,9.3518518518E-002,0.3036860540,Pass,Pass,6.0852850679E-002,7.1186879740E-002,Pass,Pass
 Warmup Convergence Information,THERMAL ZONE: UNIT_2103,RunPeriod: RUN PERIOD 1,9.3518518517E-002,0.3028150061,Pass,Pass,6.3842755768E-002,6.1364761428E-002,Pass,Pass
 Warmup Convergence Information,THERMAL ZONE: UNIT_2104,RunPeriod: RUN PERIOD 1,9.3518518517E-002,0.3028415300,Pass,Pass,6.0055471289E-002,6.0045510267E-002,Pass,Pass
 Warmup Convergence Information,THERMAL ZONE: UNIT_2105,RunPeriod: RUN PERIOD 1,9.3518518518E-002,0.3038463061,Pass,Pass,6.2967040649E-002,7.0085017080E-002,Pass,Pass
 Warmup Convergence Information,THERMAL ZONE: UNIT_2106,RunPeriod: RUN PERIOD 1,9.3518518518E-002,0.3037665378,Pass,Pass,6.9302059195E-002,7.0285217460E-002,Pass,Pass
 Warmup Convergence Information,THERMAL ZONE: UNIT_2107_3B,RunPeriod: RUN PERIOD 1,9.3518518504E-002,0.3016626820,Pass,Pass,0.1336011628,0.1274958229,Pass,Pass
 Warmup Convergence Information,THERMAL ZONE: UNIT_2108,RunPeriod: RUN PERIOD 1,9.3518518518E-002,0.3046320212,Pass,Pass,0.1357120340,0.1197536582,Pass,Pass
 Warmup Convergence Information,THERMAL ZONE: UNIT_2109_2B,RunPeriod: RUN PERIOD 1,9.3518518495E-002,0.3009325400,Pass,Pass,0.1233536853,0.1123686561,Pass,Pass
 Warmup Convergence Information,THERMAL ZONE: UNIT_2110,RunPeriod: RUN PERIOD 1,9.3518518516E-002,0.3025756601,Pass,Pass,6.6551355554E-002,6.2721542499E-002,Pass,Pass
 Warmup Convergence Information,THERMAL ZONE: UNIT_2111,RunPeriod: RUN PERIOD 1,9.3518518515E-002,0.3022971648,Pass,Pass,6.9895271007E-002,6.1803601499E-002,Pass,Pass
 Warmup Convergence Information,THERMAL ZONE: UNIT_2112,RunPeriod: RUN PERIOD 1,9.3518518515E-002,0.3022734945,Pass,Pass,7.0023416757E-002,6.1698323633E-002,Pass,Pass
 Warmup Convergence Information,THERMAL ZONE: UNIT_2113,RunPeriod: RUN PERIOD 1,9.3518518515E-002,0.3022169905,Pass,Pass,7.1607720757E-002,6.1855684343E-002,Pass,Pass
 Warmup Convergence Information,THERMAL ZONE: UNIT_2114,RunPeriod: RUN PERIOD 1,9.3518518515E-002,0.3022149215,Pass,Pass,7.1437836753E-002,6.1716658501E-002,Pass,Pass
 Warmup Convergence Information,THERMAL ZONE: UNIT_2115,RunPeriod: RUN PERIOD 1,9.3518518515E-002,0.3022573176,Pass,Pass,7.0210206962E-002,6.1777768913E-002,Pass,Pass
 Warmup Convergence Information,THERMAL ZONE: UNIT_2116,RunPeriod: RUN PERIOD 1,9.3518518515E-002,0.3021948578,Pass,Pass,6.9573048474E-002,6.1693956794E-002,Pass,Pass
 Warmup Convergence Information,THERMAL ZONE: UNIT_2117_4B,RunPeriod: RUN PERIOD 1,9.3518518512E-002,0.3018990417,Pass,Pass,5.2495640326E-002,5.0761180801E-002,Pass,Pass
 Warmup Convergence Information,THERMAL ZONE: XFMR_0201,RunPeriod: RUN PERIOD 1,9.3518518519E-002,0.2965704537,Pass,Pass,0.1645873185,0.2100294912,Pass,Pass
 Warmup Convergence Information,THERMAL ZONE: XFMR_0401,RunPeriod: RUN PERIOD 1,9.3518518519E-002,0.2986027602,Pass,Pass,0.1727412680,0.2040200791,Pass,Pass
! <Program Control Information:Threads/Parallel Sims>, Threading Supported,Maximum Number of Threads, Env Set Threads (OMP_NUM_THREADS), EP Env Set Threads (EP_OMP_NUM_THREADS), IDF Set Threads, Number of Threads Used (Interior Radiant Exchange), Number Nominal Surfaces, Number Parallel Sims
Program Control:Threads/Parallel Sims, No,1, N/A, N/A, N/A, N/A, N/A, N/A
End of Data
