! Program Version,EnergyPlus, Version 9.3.0-baff08990c, YMD=2020.05.22 11:48,
! Output:Meter Objects (applicable to this run)
Output:Meter,Electricity:Facility,hourly; !- [J]
Output:Meter:Cumulative,Electricity:Facility,hourly; !- [J]
Output:Meter,Electricity:Building,hourly; !- [J]
Output:Meter:Cumulative,Electricity:Building,hourly; !- [J]
Output:Meter,Electricity:Zone:THERMAL ZONE: AMEN_0300,hourly; !- [J]
Output:Meter:Cumulative,Electricity:Zone:THERMAL ZONE: AMEN_0300,hourly; !- [J]
Output:Meter,InteriorLights:Electricity,hourly; !- [J]
Output:Meter:Cumulative,InteriorLights:Electricity,hourly; !- [J]
Output:Meter,InteriorLights:Electricity:Zone:THERMAL ZONE: AMEN_0300,hourly; !- [J]
Output:Meter:Cumulative,InteriorLights:Electricity:Zone:THERMAL ZONE: AMEN_0300,hourly; !- [J]
Output:Meter,General:InteriorLights:Electricity,hourly; !- [J]
Output:Meter:Cumulative,General:InteriorLights:Electricity,hourly; !- [J]
Output:Meter,Electricity:Zone:THERMAL ZONE: AMEN_0400,hourly; !- [J]
Output:Meter:Cumulative,Electricity:Zone:THERMAL ZONE: AMEN_0400,hourly; !- [J]
Output:Meter,InteriorLights:Electricity:Zone:THERMAL ZONE: AMEN_0400,hourly; !- [J]
Output:Meter:Cumulative,InteriorLights:Electricity:Zone:THERMAL ZONE: AMEN_0400,hourly; !- [J]
Output:Meter,Electricity:Zone:THERMAL ZONE: AMEN_0501,hourly; !- [J]
Output:Meter:Cumulative,Electricity:Zone:THERMAL ZONE: AMEN_0501,hourly; !- [J]
Output:Meter,InteriorLights:Electricity:Zone:THERMAL ZONE: AMEN_0501,hourly; !- [J]
Output:Meter:Cumulative,InteriorLights:Electricity:Zone:THERMAL ZONE: AMEN_0501,hourly; !- [J]
Output:Meter,Electricity:Zone:THERMAL ZONE: AMEN_2100,hourly; !- [J]
Output:Meter:Cumulative,Electricity:Zone:THERMAL ZONE: AMEN_2100,hourly; !- [J]
Output:Meter,InteriorLights:Electricity:Zone:THERMAL ZONE: AMEN_2100,hourly; !- [J]
Output:Meter:Cumulative,InteriorLights:Electricity:Zone:THERMAL ZONE: AMEN_2100,hourly; !- [J]
Output:Meter,Electricity:Zone:THERMAL ZONE: AMEN_2200,hourly; !- [J]
Output:Meter:Cumulative,Electricity:Zone:THERMAL ZONE: AMEN_2200,hourly; !- [J]
Output:Meter,InteriorLights:Electricity:Zone:THERMAL ZONE: AMEN_2200,hourly; !- [J]
Output:Meter:Cumulative,InteriorLights:Electricity:Zone:THERMAL ZONE: AMEN_2200,hourly; !- [J]
Output:Meter,Electricity:Zone:THERMAL ZONE: AMEN_2300,hourly; !- [J]
Output:Meter:Cumulative,Electricity:Zone:THERMAL ZONE: AMEN_2300,hourly; !- [J]
Output:Meter,InteriorLights:Electricity:Zone:THERMAL ZONE: AMEN_2300,hourly; !- [J]
Output:Meter:Cumulative,InteriorLights:Electricity:Zone:THERMAL ZONE: AMEN_2300,hourly; !- [J]
Output:Meter,Electricity:Zone:THERMAL ZONE: FITNESS_2200,hourly; !- [J]
Output:Meter:Cumulative,Electricity:Zone:THERMAL ZONE: FITNESS_2200,hourly; !- [J]
Output:Meter,InteriorLights:Electricity:Zone:THERMAL ZONE: FITNESS_2200,hourly; !- [J]
Output:Meter:Cumulative,InteriorLights:Electricity:Zone:THERMAL ZONE: FITNESS_2200,hourly; !- [J]
Output:Meter,Electricity:Zone:THERMAL ZONE: LOUNGE_2300,hourly; !- [J]
Output:Meter:Cumulative,Electricity:Zone:THERMAL ZONE: LOUNGE_2300,hourly; !- [J]
Output:Meter,InteriorLights:Electricity:Zone:THERMAL ZONE: LOUNGE_2300,hourly; !- [J]
Output:Meter:Cumulative,InteriorLights:Electricity:Zone:THERMAL ZONE: LOUNGE_2300,hourly; !- [J]
Output:Meter,Electricity:Zone:THERMAL ZONE: LOUNGE_2301,hourly; !- [J]
Output:Meter:Cumulative,Electricity:Zone:THERMAL ZONE: LOUNGE_2301,hourly; !- [J]
Output:Meter,InteriorLights:Electricity:Zone:THERMAL ZONE: LOUNGE_2301,hourly; !- [J]
Output:Meter:Cumulative,InteriorLights:Electricity:Zone:THERMAL ZONE: LOUNGE_2301,hourly; !- [J]
Output:Meter,Electricity:Zone:THERMAL ZONE: CORR_0100,hourly; !- [J]
Output:Meter:Cumulative,Electricity:Zone:THERMAL ZONE: CORR_0100,hourly; !- [J]
Output:Meter,InteriorLights:Electricity:Zone:THERMAL ZONE: CORR_0100,hourly; !- [J]
Output:Meter:Cumulative,InteriorLights:Electricity:Zone:THERMAL ZONE: CORR_0100,hourly; !- [J]
Output:Meter,Electricity:Zone:THERMAL ZONE: CORR_0200,hourly; !- [J]
Output:Meter:Cumulative,Electricity:Zone:THERMAL ZONE: CORR_0200,hourly; !- [J]
Output:Meter,InteriorLights:Electricity:Zone:THERMAL ZONE: CORR_0200,hourly; !- [J]
Output:Meter:Cumulative,InteriorLights:Electricity:Zone:THERMAL ZONE: CORR_0200,hourly; !- [J]
Output:Meter,Electricity:Zone:THERMAL ZONE: CORR_0300,hourly; !- [J]
Output:Meter:Cumulative,Electricity:Zone:THERMAL ZONE: CORR_0300,hourly; !- [J]
Output:Meter,InteriorLights:Electricity:Zone:THERMAL ZONE: CORR_0300,hourly; !- [J]
Output:Meter:Cumulative,InteriorLights:Electricity:Zone:THERMAL ZONE: CORR_0300,hourly; !- [J]
Output:Meter,Electricity:Zone:THERMAL ZONE: CORR_0400,hourly; !- [J]
Output:Meter:Cumulative,Electricity:Zone:THERMAL ZONE: CORR_0400,hourly; !- [J]
Output:Meter,InteriorLights:Electricity:Zone:THERMAL ZONE: CORR_0400,hourly; !- [J]
Output:Meter:Cumulative,InteriorLights:Electricity:Zone:THERMAL ZONE: CORR_0400,hourly; !- [J]
Output:Meter,Electricity:Zone:THERMAL ZONE: CORR_0500,hourly; !- [J]
Output:Meter:Cumulative,Electricity:Zone:THERMAL ZONE: CORR_0500,hourly; !- [J]
Output:Meter,InteriorLights:Electricity:Zone:THERMAL ZONE: CORR_0500,hourly; !- [J]
Output:Meter:Cumulative,InteriorLights:Electricity:Zone:THERMAL ZONE: CORR_0500,hourly; !- [J]
Output:Meter,Electricity:Zone:THERMAL ZONE: CORR_2100,hourly; !- [J]
Output:Meter:Cumulative,Electricity:Zone:THERMAL ZONE: CORR_2100,hourly; !- [J]
Output:Meter,InteriorLights:Electricity:Zone:THERMAL ZONE: CORR_2100,hourly; !- [J]
Output:Meter:Cumulative,InteriorLights:Electricity:Zone:THERMAL ZONE: CORR_2100,hourly; !- [J]
Output:Meter,Electricity:Zone:THERMAL ZONE: CORR_2300,hourly; !- [J]
Output:Meter:Cumulative,Electricity:Zone:THERMAL ZONE: CORR_2300,hourly; !- [J]
Output:Meter,InteriorLights:Electricity:Zone:THERMAL ZONE: CORR_2300,hourly; !- [J]
Output:Meter:Cumulative,InteriorLights:Electricity:Zone:THERMAL ZONE: CORR_2300,hourly; !- [J]
Output:Meter,Electricity:Zone:THERMAL ZONE: CORR_2301,hourly; !- [J]
Output:Meter:Cumulative,Electricity:Zone:THERMAL ZONE: CORR_2301,hourly; !- [J]
Output:Meter,InteriorLights:Electricity:Zone:THERMAL ZONE: CORR_2301,hourly; !- [J]
Output:Meter:Cumulative,InteriorLights:Electricity:Zone:THERMAL ZONE: CORR_2301,hourly; !- [J]
Output:Meter,Electricity:Zone:THERMAL ZONE: ELEV LOBBY_2300,hourly; !- [J]
Output:Meter:Cumulative,Electricity:Zone:THERMAL ZONE: ELEV LOBBY_2300,hourly; !- [J]
Output:Meter,InteriorLights:Electricity:Zone:THERMAL ZONE: ELEV LOBBY_2300,hourly; !- [J]
Output:Meter:Cumulative,InteriorLights:Electricity:Zone:THERMAL ZONE: ELEV LOBBY_2300,hourly; !- [J]
Output:Meter,Electricity:Zone:THERMAL ZONE: ELEV LOBBY_P101,hourly; !- [J]
Output:Meter:Cumulative,Electricity:Zone:THERMAL ZONE: ELEV LOBBY_P101,hourly; !- [J]
Output:Meter,InteriorLights:Electricity:Zone:THERMAL ZONE: ELEV LOBBY_P101,hourly; !- [J]
Output:Meter:Cumulative,InteriorLights:Electricity:Zone:THERMAL ZONE: ELEV LOBBY_P101,hourly; !- [J]
Output:Meter,Electricity:Zone:THERMAL ZONE: ELEV LOBBY_P200,hourly; !- [J]
Output:Meter:Cumulative,Electricity:Zone:THERMAL ZONE: ELEV LOBBY_P200,hourly; !- [J]
Output:Meter,InteriorLights:Electricity:Zone:THERMAL ZONE: ELEV LOBBY_P200,hourly; !- [J]
Output:Meter:Cumulative,InteriorLights:Electricity:Zone:THERMAL ZONE: ELEV LOBBY_P200,hourly; !- [J]
Output:Meter,Electricity:Zone:THERMAL ZONE: LOBBY_MAIL_0100,hourly; !- [J]
Output:Meter:Cumulative,Electricity:Zone:THERMAL ZONE: LOBBY_MAIL_0100,hourly; !- [J]
Output:Meter,InteriorLights:Electricity:Zone:THERMAL ZONE: LOBBY_MAIL_0100,hourly; !- [J]
Output:Meter:Cumulative,InteriorLights:Electricity:Zone:THERMAL ZONE: LOBBY_MAIL_0100,hourly; !- [J]
Output:Meter,Electricity:Zone:THERMAL ZONE: ELEC_0300,hourly; !- [J]
Output:Meter:Cumulative,Electricity:Zone:THERMAL ZONE: ELEC_0300,hourly; !- [J]
Output:Meter,InteriorLights:Electricity:Zone:THERMAL ZONE: ELEC_0300,hourly; !- [J]
Output:Meter:Cumulative,InteriorLights:Electricity:Zone:THERMAL ZONE: ELEC_0300,hourly; !- [J]
Output:Meter,Electricity:Zone:THERMAL ZONE: ELEC_0400,hourly; !- [J]
Output:Meter:Cumulative,Electricity:Zone:THERMAL ZONE: ELEC_0400,hourly; !- [J]
Output:Meter,InteriorLights:Electricity:Zone:THERMAL ZONE: ELEC_0400,hourly; !- [J]
Output:Meter:Cumulative,InteriorLights:Electricity:Zone:THERMAL ZONE: ELEC_0400,hourly; !- [J]
Output:Meter,Electricity:Zone:THERMAL ZONE: FCC_0100,hourly; !- [J]
Output:Meter:Cumulative,Electricity:Zone:THERMAL ZONE: FCC_0100,hourly; !- [J]
Output:Meter,InteriorLights:Electricity:Zone:THERMAL ZONE: FCC_0100,hourly; !- [J]
Output:Meter:Cumulative,InteriorLights:Electricity:Zone:THERMAL ZONE: FCC_0100,hourly; !- [J]
Output:Meter,Electricity:Zone:THERMAL ZONE: MECH_0200,hourly; !- [J]
Output:Meter:Cumulative,Electricity:Zone:THERMAL ZONE: MECH_0200,hourly; !- [J]
Output:Meter,InteriorLights:Electricity:Zone:THERMAL ZONE: MECH_0200,hourly; !- [J]
Output:Meter:Cumulative,InteriorLights:Electricity:Zone:THERMAL ZONE: MECH_0200,hourly; !- [J]
Output:Meter,Electricity:Zone:THERMAL ZONE: MECH_0300,hourly; !- [J]
Output:Meter:Cumulative,Electricity:Zone:THERMAL ZONE: MECH_0300,hourly; !- [J]
Output:Meter,InteriorLights:Electricity:Zone:THERMAL ZONE: MECH_0300,hourly; !- [J]
Output:Meter:Cumulative,InteriorLights:Electricity:Zone:THERMAL ZONE: MECH_0300,hourly; !- [J]
Output:Meter,Electricity:Zone:THERMAL ZONE: MECH_0400,hourly; !- [J]
Output:Meter:Cumulative,Electricity:Zone:THERMAL ZONE: MECH_0400,hourly; !- [J]
Output:Meter,InteriorLights:Electricity:Zone:THERMAL ZONE: MECH_0400,hourly; !- [J]
Output:Meter:Cumulative,InteriorLights:Electricity:Zone:THERMAL ZONE: MECH_0400,hourly; !- [J]
Output:Meter,Electricity:Zone:THERMAL ZONE: MECH_0500,hourly; !- [J]
Output:Meter:Cumulative,Electricity:Zone:THERMAL ZONE: MECH_0500,hourly; !- [J]
Output:Meter,InteriorLights:Electricity:Zone:THERMAL ZONE: MECH_0500,hourly; !- [J]
Output:Meter:Cumulative,InteriorLights:Electricity:Zone:THERMAL ZONE: MECH_0500,hourly; !- [J]
Output:Meter,Electricity:Zone:THERMAL ZONE: MECH_2100,hourly; !- [J]
Output:Meter:Cumulative,Electricity:Zone:THERMAL ZONE: MECH_2100,hourly; !- [J]
Output:Meter,InteriorLights:Electricity:Zone:THERMAL ZONE: MECH_2100,hourly; !- [J]
Output:Meter:Cumulative,InteriorLights:Electricity:Zone:THERMAL ZONE: MECH_2100,hourly; !- [J]
Output:Meter,Electricity:Zone:THERMAL ZONE: BOH_0100,hourly; !- [J]
Output:Meter:Cumulative,Electricity:Zone:THERMAL ZONE: BOH_0100,hourly; !- [J]
Output:Meter,InteriorLights:Electricity:Zone:THERMAL ZONE: BOH_0100,hourly; !- [J]
Output:Meter:Cumulative,InteriorLights:Electricity:Zone:THERMAL ZONE: BOH_0100,hourly; !- [J]
Output:Meter,Electricity:Zone:THERMAL ZONE: LEASING_0100,hourly; !- [J]
Output:Meter:Cumulative,Electricity:Zone:THERMAL ZONE: LEASING_0100,hourly; !- [J]
Output:Meter,InteriorLights:Electricity:Zone:THERMAL ZONE: LEASING_0100,hourly; !- [J]
Output:Meter:Cumulative,InteriorLights:Electricity:Zone:THERMAL ZONE: LEASING_0100,hourly; !- [J]
Output:Meter,Electricity:Zone:THERMAL ZONE: RETAIL_0100,hourly; !- [J]
Output:Meter:Cumulative,Electricity:Zone:THERMAL ZONE: RETAIL_0100,hourly; !- [J]
Output:Meter,InteriorLights:Electricity:Zone:THERMAL ZONE: RETAIL_0100,hourly; !- [J]
Output:Meter:Cumulative,InteriorLights:Electricity:Zone:THERMAL ZONE: RETAIL_0100,hourly; !- [J]
Output:Meter,Electricity:Zone:THERMAL ZONE: UNIT_0202,hourly; !- [J]
Output:Meter:Cumulative,Electricity:Zone:THERMAL ZONE: UNIT_0202,hourly; !- [J]
Output:Meter,InteriorLights:Electricity:Zone:THERMAL ZONE: UNIT_0202,hourly; !- [J]
Output:Meter:Cumulative,InteriorLights:Electricity:Zone:THERMAL ZONE: UNIT_0202,hourly; !- [J]
Output:Meter,Electricity:Zone:THERMAL ZONE: UNIT_0203,hourly; !- [J]
Output:Meter:Cumulative,Electricity:Zone:THERMAL ZONE: UNIT_0203,hourly; !- [J]
Output:Meter,InteriorLights:Electricity:Zone:THERMAL ZONE: UNIT_0203,hourly; !- [J]
Output:Meter:Cumulative,InteriorLights:Electricity:Zone:THERMAL ZONE: UNIT_0203,hourly; !- [J]
Output:Meter,Electricity:Zone:THERMAL ZONE: UNIT_0204,hourly; !- [J]
Output:Meter:Cumulative,Electricity:Zone:THERMAL ZONE: UNIT_0204,hourly; !- [J]
Output:Meter,InteriorLights:Electricity:Zone:THERMAL ZONE: UNIT_0204,hourly; !- [J]
Output:Meter:Cumulative,InteriorLights:Electricity:Zone:THERMAL ZONE: UNIT_0204,hourly; !- [J]
Output:Meter,Electricity:Zone:THERMAL ZONE: UNIT_0205,hourly; !- [J]
Output:Meter:Cumulative,Electricity:Zone:THERMAL ZONE: UNIT_0205,hourly; !- [J]
Output:Meter,InteriorLights:Electricity:Zone:THERMAL ZONE: UNIT_0205,hourly; !- [J]
Output:Meter:Cumulative,InteriorLights:Electricity:Zone:THERMAL ZONE: UNIT_0205,hourly; !- [J]
Output:Meter,Electricity:Zone:THERMAL ZONE: UNIT_0206,hourly; !- [J]
Output:Meter:Cumulative,Electricity:Zone:THERMAL ZONE: UNIT_0206,hourly; !- [J]
Output:Meter,InteriorLights:Electricity:Zone:THERMAL ZONE: UNIT_0206,hourly; !- [J]
Output:Meter:Cumulative,InteriorLights:Electricity:Zone:THERMAL ZONE: UNIT_0206,hourly; !- [J]
Output:Meter,Electricity:Zone:THERMAL ZONE: UNIT_0207,hourly; !- [J]
Output:Meter:Cumulative,Electricity:Zone:THERMAL ZONE: UNIT_0207,hourly; !- [J]
Output:Meter,InteriorLights:Electricity:Zone:THERMAL ZONE: UNIT_0207,hourly; !- [J]
Output:Meter:Cumulative,InteriorLights:Electricity:Zone:THERMAL ZONE: UNIT_0207,hourly; !- [J]
Output:Meter,Electricity:Zone:THERMAL ZONE: UNIT_0208,hourly; !- [J]
Output:Meter:Cumulative,Electricity:Zone:THERMAL ZONE: UNIT_0208,hourly; !- [J]
Output:Meter,InteriorLights:Electricity:Zone:THERMAL ZONE: UNIT_0208,hourly; !- [J]
Output:Meter:Cumulative,InteriorLights:Electricity:Zone:THERMAL ZONE: UNIT_0208,hourly; !- [J]
Output:Meter,Electricity:Zone:THERMAL ZONE: UNIT_0210,hourly; !- [J]
Output:Meter:Cumulative,Electricity:Zone:THERMAL ZONE: UNIT_0210,hourly; !- [J]
Output:Meter,InteriorLights:Electricity:Zone:THERMAL ZONE: UNIT_0210,hourly; !- [J]
Output:Meter:Cumulative,InteriorLights:Electricity:Zone:THERMAL ZONE: UNIT_0210,hourly; !- [J]
Output:Meter,Electricity:Zone:THERMAL ZONE: UNIT_0212,hourly; !- [J]
Output:Meter:Cumulative,Electricity:Zone:THERMAL ZONE: UNIT_0212,hourly; !- [J]
Output:Meter,InteriorLights:Electricity:Zone:THERMAL ZONE: UNIT_0212,hourly; !- [J]
Output:Meter:Cumulative,InteriorLights:Electricity:Zone:THERMAL ZONE: UNIT_0212,hourly; !- [J]
Output:Meter,Electricity:Zone:THERMAL ZONE: UNIT_0213,hourly; !- [J]
Output:Meter:Cumulative,Electricity:Zone:THERMAL ZONE: UNIT_0213,hourly; !- [J]
Output:Meter,InteriorLights:Electricity:Zone:THERMAL ZONE: UNIT_0213,hourly; !- [J]
Output:Meter:Cumulative,InteriorLights:Electricity:Zone:THERMAL ZONE: UNIT_0213,hourly; !- [J]
Output:Meter,Electricity:Zone:THERMAL ZONE: UNIT_0214,hourly; !- [J]
Output:Meter:Cumulative,Electricity:Zone:THERMAL ZONE: UNIT_0214,hourly; !- [J]
Output:Meter,InteriorLights:Electricity:Zone:THERMAL ZONE: UNIT_0214,hourly; !- [J]
Output:Meter:Cumulative,InteriorLights:Electricity:Zone:THERMAL ZONE: UNIT_0214,hourly; !- [J]
Output:Meter,Electricity:Zone:THERMAL ZONE: UNIT_0215,hourly; !- [J]
Output:Meter:Cumulative,Electricity:Zone:THERMAL ZONE: UNIT_0215,hourly; !- [J]
Output:Meter,InteriorLights:Electricity:Zone:THERMAL ZONE: UNIT_0215,hourly; !- [J]
Output:Meter:Cumulative,InteriorLights:Electricity:Zone:THERMAL ZONE: UNIT_0215,hourly; !- [J]
Output:Meter,Electricity:Zone:THERMAL ZONE: UNIT_0216,hourly; !- [J]
Output:Meter:Cumulative,Electricity:Zone:THERMAL ZONE: UNIT_0216,hourly; !- [J]
Output:Meter,InteriorLights:Electricity:Zone:THERMAL ZONE: UNIT_0216,hourly; !- [J]
Output:Meter:Cumulative,InteriorLights:Electricity:Zone:THERMAL ZONE: UNIT_0216,hourly; !- [J]
Output:Meter,Electricity:Zone:THERMAL ZONE: UNIT_0217,hourly; !- [J]
Output:Meter:Cumulative,Electricity:Zone:THERMAL ZONE: UNIT_0217,hourly; !- [J]
Output:Meter,InteriorLights:Electricity:Zone:THERMAL ZONE: UNIT_0217,hourly; !- [J]
Output:Meter:Cumulative,InteriorLights:Electricity:Zone:THERMAL ZONE: UNIT_0217,hourly; !- [J]
Output:Meter,Electricity:Zone:THERMAL ZONE: UNIT_0218,hourly; !- [J]
Output:Meter:Cumulative,Electricity:Zone:THERMAL ZONE: UNIT_0218,hourly; !- [J]
Output:Meter,InteriorLights:Electricity:Zone:THERMAL ZONE: UNIT_0218,hourly; !- [J]
Output:Meter:Cumulative,InteriorLights:Electricity:Zone:THERMAL ZONE: UNIT_0218,hourly; !- [J]
Output:Meter,Electricity:Zone:THERMAL ZONE: UNIT_0302,hourly; !- [J]
Output:Meter:Cumulative,Electricity:Zone:THERMAL ZONE: UNIT_0302,hourly; !- [J]
Output:Meter,InteriorLights:Electricity:Zone:THERMAL ZONE: UNIT_0302,hourly; !- [J]
Output:Meter:Cumulative,InteriorLights:Electricity:Zone:THERMAL ZONE: UNIT_0302,hourly; !- [J]
Output:Meter,Electricity:Zone:THERMAL ZONE: UNIT_0303,hourly; !- [J]
Output:Meter:Cumulative,Electricity:Zone:THERMAL ZONE: UNIT_0303,hourly; !- [J]
Output:Meter,InteriorLights:Electricity:Zone:THERMAL ZONE: UNIT_0303,hourly; !- [J]
Output:Meter:Cumulative,InteriorLights:Electricity:Zone:THERMAL ZONE: UNIT_0303,hourly; !- [J]
Output:Meter,Electricity:Zone:THERMAL ZONE: UNIT_0304,hourly; !- [J]
Output:Meter:Cumulative,Electricity:Zone:THERMAL ZONE: UNIT_0304,hourly; !- [J]
Output:Meter,InteriorLights:Electricity:Zone:THERMAL ZONE: UNIT_0304,hourly; !- [J]
Output:Meter:Cumulative,InteriorLights:Electricity:Zone:THERMAL ZONE: UNIT_0304,hourly; !- [J]
Output:Meter,Electricity:Zone:THERMAL ZONE: UNIT_0305,hourly; !- [J]
Output:Meter:Cumulative,Electricity:Zone:THERMAL ZONE: UNIT_0305,hourly; !- [J]
Output:Meter,InteriorLights:Electricity:Zone:THERMAL ZONE: UNIT_0305,hourly; !- [J]
Output:Meter:Cumulative,InteriorLights:Electricity:Zone:THERMAL ZONE: UNIT_0305,hourly; !- [J]
Output:Meter,Electricity:Zone:THERMAL ZONE: UNIT_0306,hourly; !- [J]
Output:Meter:Cumulative,Electricity:Zone:THERMAL ZONE: UNIT_0306,hourly; !- [J]
Output:Meter,InteriorLights:Electricity:Zone:THERMAL ZONE: UNIT_0306,hourly; !- [J]
Output:Meter:Cumulative,InteriorLights:Electricity:Zone:THERMAL ZONE: UNIT_0306,hourly; !- [J]
Output:Meter,Electricity:Zone:THERMAL ZONE: UNIT_0308,hourly; !- [J]
Output:Meter:Cumulative,Electricity:Zone:THERMAL ZONE: UNIT_0308,hourly; !- [J]
Output:Meter,InteriorLights:Electricity:Zone:THERMAL ZONE: UNIT_0308,hourly; !- [J]
Output:Meter:Cumulative,InteriorLights:Electricity:Zone:THERMAL ZONE: UNIT_0308,hourly; !- [J]
Output:Meter,Electricity:Zone:THERMAL ZONE: UNIT_0310,hourly; !- [J]
Output:Meter:Cumulative,Electricity:Zone:THERMAL ZONE: UNIT_0310,hourly; !- [J]
Output:Meter,InteriorLights:Electricity:Zone:THERMAL ZONE: UNIT_0310,hourly; !- [J]
Output:Meter:Cumulative,InteriorLights:Electricity:Zone:THERMAL ZONE: UNIT_0310,hourly; !- [J]
Output:Meter,Electricity:Zone:THERMAL ZONE: UNIT_0311,hourly; !- [J]
Output:Meter:Cumulative,Electricity:Zone:THERMAL ZONE: UNIT_0311,hourly; !- [J]
Output:Meter,InteriorLights:Electricity:Zone:THERMAL ZONE: UNIT_0311,hourly; !- [J]
Output:Meter:Cumulative,InteriorLights:Electricity:Zone:THERMAL ZONE: UNIT_0311,hourly; !- [J]
Output:Meter,Electricity:Zone:THERMAL ZONE: UNIT_0312,hourly; !- [J]
Output:Meter:Cumulative,Electricity:Zone:THERMAL ZONE: UNIT_0312,hourly; !- [J]
Output:Meter,InteriorLights:Electricity:Zone:THERMAL ZONE: UNIT_0312,hourly; !- [J]
Output:Meter:Cumulative,InteriorLights:Electricity:Zone:THERMAL ZONE: UNIT_0312,hourly; !- [J]
Output:Meter,Electricity:Zone:THERMAL ZONE: UNIT_0313,hourly; !- [J]
Output:Meter:Cumulative,Electricity:Zone:THERMAL ZONE: UNIT_0313,hourly; !- [J]
Output:Meter,InteriorLights:Electricity:Zone:THERMAL ZONE: UNIT_0313,hourly; !- [J]
Output:Meter:Cumulative,InteriorLights:Electricity:Zone:THERMAL ZONE: UNIT_0313,hourly; !- [J]
Output:Meter,Electricity:Zone:THERMAL ZONE: UNIT_0314,hourly; !- [J]
Output:Meter:Cumulative,Electricity:Zone:THERMAL ZONE: UNIT_0314,hourly; !- [J]
Output:Meter,InteriorLights:Electricity:Zone:THERMAL ZONE: UNIT_0314,hourly; !- [J]
Output:Meter:Cumulative,InteriorLights:Electricity:Zone:THERMAL ZONE: UNIT_0314,hourly; !- [J]
Output:Meter,Electricity:Zone:THERMAL ZONE: UNIT_0315,hourly; !- [J]
Output:Meter:Cumulative,Electricity:Zone:THERMAL ZONE: UNIT_0315,hourly; !- [J]
Output:Meter,InteriorLights:Electricity:Zone:THERMAL ZONE: UNIT_0315,hourly; !- [J]
Output:Meter:Cumulative,InteriorLights:Electricity:Zone:THERMAL ZONE: UNIT_0315,hourly; !- [J]
Output:Meter,Electricity:Zone:THERMAL ZONE: UNIT_0316,hourly; !- [J]
Output:Meter:Cumulative,Electricity:Zone:THERMAL ZONE: UNIT_0316,hourly; !- [J]
Output:Meter,InteriorLights:Electricity:Zone:THERMAL ZONE: UNIT_0316,hourly; !- [J]
Output:Meter:Cumulative,InteriorLights:Electricity:Zone:THERMAL ZONE: UNIT_0316,hourly; !- [J]
Output:Meter,Electricity:Zone:THERMAL ZONE: UNIT_0402,hourly; !- [J]
Output:Meter:Cumulative,Electricity:Zone:THERMAL ZONE: UNIT_0402,hourly; !- [J]
Output:Meter,InteriorLights:Electricity:Zone:THERMAL ZONE: UNIT_0402,hourly; !- [J]
Output:Meter:Cumulative,InteriorLights:Electricity:Zone:THERMAL ZONE: UNIT_0402,hourly; !- [J]
Output:Meter,Electricity:Zone:THERMAL ZONE: UNIT_0403,hourly; !- [J]
Output:Meter:Cumulative,Electricity:Zone:THERMAL ZONE: UNIT_0403,hourly; !- [J]
Output:Meter,InteriorLights:Electricity:Zone:THERMAL ZONE: UNIT_0403,hourly; !- [J]
Output:Meter:Cumulative,InteriorLights:Electricity:Zone:THERMAL ZONE: UNIT_0403,hourly; !- [J]
Output:Meter,Electricity:Zone:THERMAL ZONE: UNIT_0404,hourly; !- [J]
Output:Meter:Cumulative,Electricity:Zone:THERMAL ZONE: UNIT_0404,hourly; !- [J]
Output:Meter,InteriorLights:Electricity:Zone:THERMAL ZONE: UNIT_0404,hourly; !- [J]
Output:Meter:Cumulative,InteriorLights:Electricity:Zone:THERMAL ZONE: UNIT_0404,hourly; !- [J]
Output:Meter,Electricity:Zone:THERMAL ZONE: UNIT_0405,hourly; !- [J]
Output:Meter:Cumulative,Electricity:Zone:THERMAL ZONE: UNIT_0405,hourly; !- [J]
Output:Meter,InteriorLights:Electricity:Zone:THERMAL ZONE: UNIT_0405,hourly; !- [J]
Output:Meter:Cumulative,InteriorLights:Electricity:Zone:THERMAL ZONE: UNIT_0405,hourly; !- [J]
Output:Meter,Electricity:Zone:THERMAL ZONE: UNIT_0406,hourly; !- [J]
Output:Meter:Cumulative,Electricity:Zone:THERMAL ZONE: UNIT_0406,hourly; !- [J]
Output:Meter,InteriorLights:Electricity:Zone:THERMAL ZONE: UNIT_0406,hourly; !- [J]
Output:Meter:Cumulative,InteriorLights:Electricity:Zone:THERMAL ZONE: UNIT_0406,hourly; !- [J]
Output:Meter,Electricity:Zone:THERMAL ZONE: UNIT_0408,hourly; !- [J]
Output:Meter:Cumulative,Electricity:Zone:THERMAL ZONE: UNIT_0408,hourly; !- [J]
Output:Meter,InteriorLights:Electricity:Zone:THERMAL ZONE: UNIT_0408,hourly; !- [J]
Output:Meter:Cumulative,InteriorLights:Electricity:Zone:THERMAL ZONE: UNIT_0408,hourly; !- [J]
Output:Meter,Electricity:Zone:THERMAL ZONE: UNIT_0410,hourly; !- [J]
Output:Meter:Cumulative,Electricity:Zone:THERMAL ZONE: UNIT_0410,hourly; !- [J]
Output:Meter,InteriorLights:Electricity:Zone:THERMAL ZONE: UNIT_0410,hourly; !- [J]
Output:Meter:Cumulative,InteriorLights:Electricity:Zone:THERMAL ZONE: UNIT_0410,hourly; !- [J]
Output:Meter,Electricity:Zone:THERMAL ZONE: UNIT_0411,hourly; !- [J]
Output:Meter:Cumulative,Electricity:Zone:THERMAL ZONE: UNIT_0411,hourly; !- [J]
Output:Meter,InteriorLights:Electricity:Zone:THERMAL ZONE: UNIT_0411,hourly; !- [J]
Output:Meter:Cumulative,InteriorLights:Electricity:Zone:THERMAL ZONE: UNIT_0411,hourly; !- [J]
Output:Meter,Electricity:Zone:THERMAL ZONE: UNIT_0412,hourly; !- [J]
Output:Meter:Cumulative,Electricity:Zone:THERMAL ZONE: UNIT_0412,hourly; !- [J]
Output:Meter,InteriorLights:Electricity:Zone:THERMAL ZONE: UNIT_0412,hourly; !- [J]
Output:Meter:Cumulative,InteriorLights:Electricity:Zone:THERMAL ZONE: UNIT_0412,hourly; !- [J]
Output:Meter,Electricity:Zone:THERMAL ZONE: UNIT_0413,hourly; !- [J]
Output:Meter:Cumulative,Electricity:Zone:THERMAL ZONE: UNIT_0413,hourly; !- [J]
Output:Meter,InteriorLights:Electricity:Zone:THERMAL ZONE: UNIT_0413,hourly; !- [J]
Output:Meter:Cumulative,InteriorLights:Electricity:Zone:THERMAL ZONE: UNIT_0413,hourly; !- [J]
Output:Meter,Electricity:Zone:THERMAL ZONE: UNIT_0414,hourly; !- [J]
Output:Meter:Cumulative,Electricity:Zone:THERMAL ZONE: UNIT_0414,hourly; !- [J]
Output:Meter,InteriorLights:Electricity:Zone:THERMAL ZONE: UNIT_0414,hourly; !- [J]
Output:Meter:Cumulative,InteriorLights:Electricity:Zone:THERMAL ZONE: UNIT_0414,hourly; !- [J]
Output:Meter,Electricity:Zone:THERMAL ZONE: UNIT_0415,hourly; !- [J]
Output:Meter:Cumulative,Electricity:Zone:THERMAL ZONE: UNIT_0415,hourly; !- [J]
Output:Meter,InteriorLights:Electricity:Zone:THERMAL ZONE: UNIT_0415,hourly; !- [J]
Output:Meter:Cumulative,InteriorLights:Electricity:Zone:THERMAL ZONE: UNIT_0415,hourly; !- [J]
Output:Meter,Electricity:Zone:THERMAL ZONE: UNIT_0416,hourly; !- [J]
Output:Meter:Cumulative,Electricity:Zone:THERMAL ZONE: UNIT_0416,hourly; !- [J]
Output:Meter,InteriorLights:Electricity:Zone:THERMAL ZONE: UNIT_0416,hourly; !- [J]
Output:Meter:Cumulative,InteriorLights:Electricity:Zone:THERMAL ZONE: UNIT_0416,hourly; !- [J]
Output:Meter,Electricity:Zone:THERMAL ZONE: UNIT_0502,hourly; !- [J]
Output:Meter:Cumulative,Electricity:Zone:THERMAL ZONE: UNIT_0502,hourly; !- [J]
Output:Meter,InteriorLights:Electricity:Zone:THERMAL ZONE: UNIT_0502,hourly; !- [J]
Output:Meter:Cumulative,InteriorLights:Electricity:Zone:THERMAL ZONE: UNIT_0502,hourly; !- [J]
Output:Meter,Electricity:Zone:THERMAL ZONE: UNIT_0503,hourly; !- [J]
Output:Meter:Cumulative,Electricity:Zone:THERMAL ZONE: UNIT_0503,hourly; !- [J]
Output:Meter,InteriorLights:Electricity:Zone:THERMAL ZONE: UNIT_0503,hourly; !- [J]
Output:Meter:Cumulative,InteriorLights:Electricity:Zone:THERMAL ZONE: UNIT_0503,hourly; !- [J]
Output:Meter,Electricity:Zone:THERMAL ZONE: UNIT_0504,hourly; !- [J]
Output:Meter:Cumulative,Electricity:Zone:THERMAL ZONE: UNIT_0504,hourly; !- [J]
Output:Meter,InteriorLights:Electricity:Zone:THERMAL ZONE: UNIT_0504,hourly; !- [J]
Output:Meter:Cumulative,InteriorLights:Electricity:Zone:THERMAL ZONE: UNIT_0504,hourly; !- [J]
Output:Meter,Electricity:Zone:THERMAL ZONE: UNIT_0505,hourly; !- [J]
Output:Meter:Cumulative,Electricity:Zone:THERMAL ZONE: UNIT_0505,hourly; !- [J]
Output:Meter,InteriorLights:Electricity:Zone:THERMAL ZONE: UNIT_0505,hourly; !- [J]
Output:Meter:Cumulative,InteriorLights:Electricity:Zone:THERMAL ZONE: UNIT_0505,hourly; !- [J]
Output:Meter,Electricity:Zone:THERMAL ZONE: UNIT_0506,hourly; !- [J]
Output:Meter:Cumulative,Electricity:Zone:THERMAL ZONE: UNIT_0506,hourly; !- [J]
Output:Meter,InteriorLights:Electricity:Zone:THERMAL ZONE: UNIT_0506,hourly; !- [J]
Output:Meter:Cumulative,InteriorLights:Electricity:Zone:THERMAL ZONE: UNIT_0506,hourly; !- [J]
Output:Meter,Electricity:Zone:THERMAL ZONE: UNIT_0508,hourly; !- [J]
Output:Meter:Cumulative,Electricity:Zone:THERMAL ZONE: UNIT_0508,hourly; !- [J]
Output:Meter,InteriorLights:Electricity:Zone:THERMAL ZONE: UNIT_0508,hourly; !- [J]
Output:Meter:Cumulative,InteriorLights:Electricity:Zone:THERMAL ZONE: UNIT_0508,hourly; !- [J]
Output:Meter,Electricity:Zone:THERMAL ZONE: UNIT_0510,hourly; !- [J]
Output:Meter:Cumulative,Electricity:Zone:THERMAL ZONE: UNIT_0510,hourly; !- [J]
Output:Meter,InteriorLights:Electricity:Zone:THERMAL ZONE: UNIT_0510,hourly; !- [J]
Output:Meter:Cumulative,InteriorLights:Electricity:Zone:THERMAL ZONE: UNIT_0510,hourly; !- [J]
Output:Meter,Electricity:Zone:THERMAL ZONE: UNIT_0511,hourly; !- [J]
Output:Meter:Cumulative,Electricity:Zone:THERMAL ZONE: UNIT_0511,hourly; !- [J]
Output:Meter,InteriorLights:Electricity:Zone:THERMAL ZONE: UNIT_0511,hourly; !- [J]
Output:Meter:Cumulative,InteriorLights:Electricity:Zone:THERMAL ZONE: UNIT_0511,hourly; !- [J]
Output:Meter,Electricity:Zone:THERMAL ZONE: UNIT_0512,hourly; !- [J]
Output:Meter:Cumulative,Electricity:Zone:THERMAL ZONE: UNIT_0512,hourly; !- [J]
Output:Meter,InteriorLights:Electricity:Zone:THERMAL ZONE: UNIT_0512,hourly; !- [J]
Output:Meter:Cumulative,InteriorLights:Electricity:Zone:THERMAL ZONE: UNIT_0512,hourly; !- [J]
Output:Meter,Electricity:Zone:THERMAL ZONE: UNIT_0513,hourly; !- [J]
Output:Meter:Cumulative,Electricity:Zone:THERMAL ZONE: UNIT_0513,hourly; !- [J]
Output:Meter,InteriorLights:Electricity:Zone:THERMAL ZONE: UNIT_0513,hourly; !- [J]
Output:Meter:Cumulative,InteriorLights:Electricity:Zone:THERMAL ZONE: UNIT_0513,hourly; !- [J]
Output:Meter,Electricity:Zone:THERMAL ZONE: UNIT_0514,hourly; !- [J]
Output:Meter:Cumulative,Electricity:Zone:THERMAL ZONE: UNIT_0514,hourly; !- [J]
Output:Meter,InteriorLights:Electricity:Zone:THERMAL ZONE: UNIT_0514,hourly; !- [J]
Output:Meter:Cumulative,InteriorLights:Electricity:Zone:THERMAL ZONE: UNIT_0514,hourly; !- [J]
Output:Meter,Electricity:Zone:THERMAL ZONE: UNIT_0515,hourly; !- [J]
Output:Meter:Cumulative,Electricity:Zone:THERMAL ZONE: UNIT_0515,hourly; !- [J]
Output:Meter,InteriorLights:Electricity:Zone:THERMAL ZONE: UNIT_0515,hourly; !- [J]
Output:Meter:Cumulative,InteriorLights:Electricity:Zone:THERMAL ZONE: UNIT_0515,hourly; !- [J]
Output:Meter,Electricity:Zone:THERMAL ZONE: UNIT_0516,hourly; !- [J]
Output:Meter:Cumulative,Electricity:Zone:THERMAL ZONE: UNIT_0516,hourly; !- [J]
Output:Meter,InteriorLights:Electricity:Zone:THERMAL ZONE: UNIT_0516,hourly; !- [J]
Output:Meter:Cumulative,InteriorLights:Electricity:Zone:THERMAL ZONE: UNIT_0516,hourly; !- [J]
Output:Meter,Electricity:Zone:THERMAL ZONE: UNIT_2102,hourly; !- [J]
Output:Meter:Cumulative,Electricity:Zone:THERMAL ZONE: UNIT_2102,hourly; !- [J]
Output:Meter,InteriorLights:Electricity:Zone:THERMAL ZONE: UNIT_2102,hourly; !- [J]
Output:Meter:Cumulative,InteriorLights:Electricity:Zone:THERMAL ZONE: UNIT_2102,hourly; !- [J]
Output:Meter,Electricity:Zone:THERMAL ZONE: UNIT_2103,hourly; !- [J]
Output:Meter:Cumulative,Electricity:Zone:THERMAL ZONE: UNIT_2103,hourly; !- [J]
Output:Meter,InteriorLights:Electricity:Zone:THERMAL ZONE: UNIT_2103,hourly; !- [J]
Output:Meter:Cumulative,InteriorLights:Electricity:Zone:THERMAL ZONE: UNIT_2103,hourly; !- [J]
Output:Meter,Electricity:Zone:THERMAL ZONE: UNIT_2104,hourly; !- [J]
Output:Meter:Cumulative,Electricity:Zone:THERMAL ZONE: UNIT_2104,hourly; !- [J]
Output:Meter,InteriorLights:Electricity:Zone:THERMAL ZONE: UNIT_2104,hourly; !- [J]
Output:Meter:Cumulative,InteriorLights:Electricity:Zone:THERMAL ZONE: UNIT_2104,hourly; !- [J]
Output:Meter,Electricity:Zone:THERMAL ZONE: UNIT_2105,hourly; !- [J]
Output:Meter:Cumulative,Electricity:Zone:THERMAL ZONE: UNIT_2105,hourly; !- [J]
Output:Meter,InteriorLights:Electricity:Zone:THERMAL ZONE: UNIT_2105,hourly; !- [J]
Output:Meter:Cumulative,InteriorLights:Electricity:Zone:THERMAL ZONE: UNIT_2105,hourly; !- [J]
Output:Meter,Electricity:Zone:THERMAL ZONE: UNIT_2106,hourly; !- [J]
Output:Meter:Cumulative,Electricity:Zone:THERMAL ZONE: UNIT_2106,hourly; !- [J]
Output:Meter,InteriorLights:Electricity:Zone:THERMAL ZONE: UNIT_2106,hourly; !- [J]
Output:Meter:Cumulative,InteriorLights:Electricity:Zone:THERMAL ZONE: UNIT_2106,hourly; !- [J]
Output:Meter,Electricity:Zone:THERMAL ZONE: UNIT_2108,hourly; !- [J]
Output:Meter:Cumulative,Electricity:Zone:THERMAL ZONE: UNIT_2108,hourly; !- [J]
Output:Meter,InteriorLights:Electricity:Zone:THERMAL ZONE: UNIT_2108,hourly; !- [J]
Output:Meter:Cumulative,InteriorLights:Electricity:Zone:THERMAL ZONE: UNIT_2108,hourly; !- [J]
Output:Meter,Electricity:Zone:THERMAL ZONE: UNIT_2110,hourly; !- [J]
Output:Meter:Cumulative,Electricity:Zone:THERMAL ZONE: UNIT_2110,hourly; !- [J]
Output:Meter,InteriorLights:Electricity:Zone:THERMAL ZONE: UNIT_2110,hourly; !- [J]
Output:Meter:Cumulative,InteriorLights:Electricity:Zone:THERMAL ZONE: UNIT_2110,hourly; !- [J]
Output:Meter,Electricity:Zone:THERMAL ZONE: UNIT_2111,hourly; !- [J]
Output:Meter:Cumulative,Electricity:Zone:THERMAL ZONE: UNIT_2111,hourly; !- [J]
Output:Meter,InteriorLights:Electricity:Zone:THERMAL ZONE: UNIT_2111,hourly; !- [J]
Output:Meter:Cumulative,InteriorLights:Electricity:Zone:THERMAL ZONE: UNIT_2111,hourly; !- [J]
Output:Meter,Electricity:Zone:THERMAL ZONE: UNIT_2112,hourly; !- [J]
Output:Meter:Cumulative,Electricity:Zone:THERMAL ZONE: UNIT_2112,hourly; !- [J]
Output:Meter,InteriorLights:Electricity:Zone:THERMAL ZONE: UNIT_2112,hourly; !- [J]
Output:Meter:Cumulative,InteriorLights:Electricity:Zone:THERMAL ZONE: UNIT_2112,hourly; !- [J]
Output:Meter,Electricity:Zone:THERMAL ZONE: UNIT_2113,hourly; !- [J]
Output:Meter:Cumulative,Electricity:Zone:THERMAL ZONE: UNIT_2113,hourly; !- [J]
Output:Meter,InteriorLights:Electricity:Zone:THERMAL ZONE: UNIT_2113,hourly; !- [J]
Output:Meter:Cumulative,InteriorLights:Electricity:Zone:THERMAL ZONE: UNIT_2113,hourly; !- [J]
Output:Meter,Electricity:Zone:THERMAL ZONE: UNIT_2114,hourly; !- [J]
Output:Meter:Cumulative,Electricity:Zone:THERMAL ZONE: UNIT_2114,hourly; !- [J]
Output:Meter,InteriorLights:Electricity:Zone:THERMAL ZONE: UNIT_2114,hourly; !- [J]
Output:Meter:Cumulative,InteriorLights:Electricity:Zone:THERMAL ZONE: UNIT_2114,hourly; !- [J]
Output:Meter,Electricity:Zone:THERMAL ZONE: UNIT_2115,hourly; !- [J]
Output:Meter:Cumulative,Electricity:Zone:THERMAL ZONE: UNIT_2115,hourly; !- [J]
Output:Meter,InteriorLights:Electricity:Zone:THERMAL ZONE: UNIT_2115,hourly; !- [J]
Output:Meter:Cumulative,InteriorLights:Electricity:Zone:THERMAL ZONE: UNIT_2115,hourly; !- [J]
Output:Meter,Electricity:Zone:THERMAL ZONE: UNIT_2116,hourly; !- [J]
Output:Meter:Cumulative,Electricity:Zone:THERMAL ZONE: UNIT_2116,hourly; !- [J]
Output:Meter,InteriorLights:Electricity:Zone:THERMAL ZONE: UNIT_2116,hourly; !- [J]
Output:Meter:Cumulative,InteriorLights:Electricity:Zone:THERMAL ZONE: UNIT_2116,hourly; !- [J]
Output:Meter,Electricity:Zone:THERMAL ZONE: UNIT_0211_2B,hourly; !- [J]
Output:Meter:Cumulative,Electricity:Zone:THERMAL ZONE: UNIT_0211_2B,hourly; !- [J]
Output:Meter,InteriorLights:Electricity:Zone:THERMAL ZONE: UNIT_0211_2B,hourly; !- [J]
Output:Meter:Cumulative,InteriorLights:Electricity:Zone:THERMAL ZONE: UNIT_0211_2B,hourly; !- [J]
Output:Meter,Electricity:Zone:THERMAL ZONE: UNIT_0309_2B,hourly; !- [J]
Output:Meter:Cumulative,Electricity:Zone:THERMAL ZONE: UNIT_0309_2B,hourly; !- [J]
Output:Meter,InteriorLights:Electricity:Zone:THERMAL ZONE: UNIT_0309_2B,hourly; !- [J]
Output:Meter:Cumulative,InteriorLights:Electricity:Zone:THERMAL ZONE: UNIT_0309_2B,hourly; !- [J]
Output:Meter,Electricity:Zone:THERMAL ZONE: UNIT_0409_2B,hourly; !- [J]
Output:Meter:Cumulative,Electricity:Zone:THERMAL ZONE: UNIT_0409_2B,hourly; !- [J]
Output:Meter,InteriorLights:Electricity:Zone:THERMAL ZONE: UNIT_0409_2B,hourly; !- [J]
Output:Meter:Cumulative,InteriorLights:Electricity:Zone:THERMAL ZONE: UNIT_0409_2B,hourly; !- [J]
Output:Meter,Electricity:Zone:THERMAL ZONE: UNIT_0509_2B,hourly; !- [J]
Output:Meter:Cumulative,Electricity:Zone:THERMAL ZONE: UNIT_0509_2B,hourly; !- [J]
Output:Meter,InteriorLights:Electricity:Zone:THERMAL ZONE: UNIT_0509_2B,hourly; !- [J]
Output:Meter:Cumulative,InteriorLights:Electricity:Zone:THERMAL ZONE: UNIT_0509_2B,hourly; !- [J]
Output:Meter,Electricity:Zone:THERMAL ZONE: UNIT_2109_2B,hourly; !- [J]
Output:Meter:Cumulative,Electricity:Zone:THERMAL ZONE: UNIT_2109_2B,hourly; !- [J]
Output:Meter,InteriorLights:Electricity:Zone:THERMAL ZONE: UNIT_2109_2B,hourly; !- [J]
Output:Meter:Cumulative,InteriorLights:Electricity:Zone:THERMAL ZONE: UNIT_2109_2B,hourly; !- [J]
Output:Meter,Electricity:Zone:THERMAL ZONE: UNIT_0209_3B,hourly; !- [J]
Output:Meter:Cumulative,Electricity:Zone:THERMAL ZONE: UNIT_0209_3B,hourly; !- [J]
Output:Meter,InteriorLights:Electricity:Zone:THERMAL ZONE: UNIT_0209_3B,hourly; !- [J]
Output:Meter:Cumulative,InteriorLights:Electricity:Zone:THERMAL ZONE: UNIT_0209_3B,hourly; !- [J]
Output:Meter,Electricity:Zone:THERMAL ZONE: UNIT_0307_3B,hourly; !- [J]
Output:Meter:Cumulative,Electricity:Zone:THERMAL ZONE: UNIT_0307_3B,hourly; !- [J]
Output:Meter,InteriorLights:Electricity:Zone:THERMAL ZONE: UNIT_0307_3B,hourly; !- [J]
Output:Meter:Cumulative,InteriorLights:Electricity:Zone:THERMAL ZONE: UNIT_0307_3B,hourly; !- [J]
Output:Meter,Electricity:Zone:THERMAL ZONE: UNIT_0407_3B,hourly; !- [J]
Output:Meter:Cumulative,Electricity:Zone:THERMAL ZONE: UNIT_0407_3B,hourly; !- [J]
Output:Meter,InteriorLights:Electricity:Zone:THERMAL ZONE: UNIT_0407_3B,hourly; !- [J]
Output:Meter:Cumulative,InteriorLights:Electricity:Zone:THERMAL ZONE: UNIT_0407_3B,hourly; !- [J]
Output:Meter,Electricity:Zone:THERMAL ZONE: UNIT_0507_3B,hourly; !- [J]
Output:Meter:Cumulative,Electricity:Zone:THERMAL ZONE: UNIT_0507_3B,hourly; !- [J]
Output:Meter,InteriorLights:Electricity:Zone:THERMAL ZONE: UNIT_0507_3B,hourly; !- [J]
Output:Meter:Cumulative,InteriorLights:Electricity:Zone:THERMAL ZONE: UNIT_0507_3B,hourly; !- [J]
Output:Meter,Electricity:Zone:THERMAL ZONE: UNIT_2107_3B,hourly; !- [J]
Output:Meter:Cumulative,Electricity:Zone:THERMAL ZONE: UNIT_2107_3B,hourly; !- [J]
Output:Meter,InteriorLights:Electricity:Zone:THERMAL ZONE: UNIT_2107_3B,hourly; !- [J]
Output:Meter:Cumulative,InteriorLights:Electricity:Zone:THERMAL ZONE: UNIT_2107_3B,hourly; !- [J]
Output:Meter,Electricity:Zone:THERMAL ZONE: UNIT_0201_4B,hourly; !- [J]
Output:Meter:Cumulative,Electricity:Zone:THERMAL ZONE: UNIT_0201_4B,hourly; !- [J]
Output:Meter,InteriorLights:Electricity:Zone:THERMAL ZONE: UNIT_0201_4B,hourly; !- [J]
Output:Meter:Cumulative,InteriorLights:Electricity:Zone:THERMAL ZONE: UNIT_0201_4B,hourly; !- [J]
Output:Meter,Electricity:Zone:THERMAL ZONE: UNIT_0219_4B,hourly; !- [J]
Output:Meter:Cumulative,Electricity:Zone:THERMAL ZONE: UNIT_0219_4B,hourly; !- [J]
Output:Meter,InteriorLights:Electricity:Zone:THERMAL ZONE: UNIT_0219_4B,hourly; !- [J]
Output:Meter:Cumulative,InteriorLights:Electricity:Zone:THERMAL ZONE: UNIT_0219_4B,hourly; !- [J]
Output:Meter,Electricity:Zone:THERMAL ZONE: UNIT_0301_4B,hourly; !- [J]
Output:Meter:Cumulative,Electricity:Zone:THERMAL ZONE: UNIT_0301_4B,hourly; !- [J]
Output:Meter,InteriorLights:Electricity:Zone:THERMAL ZONE: UNIT_0301_4B,hourly; !- [J]
Output:Meter:Cumulative,InteriorLights:Electricity:Zone:THERMAL ZONE: UNIT_0301_4B,hourly; !- [J]
Output:Meter,Electricity:Zone:THERMAL ZONE: UNIT_0317_4B,hourly; !- [J]
Output:Meter:Cumulative,Electricity:Zone:THERMAL ZONE: UNIT_0317_4B,hourly; !- [J]
Output:Meter,InteriorLights:Electricity:Zone:THERMAL ZONE: UNIT_0317_4B,hourly; !- [J]
Output:Meter:Cumulative,InteriorLights:Electricity:Zone:THERMAL ZONE: UNIT_0317_4B,hourly; !- [J]
Output:Meter,Electricity:Zone:THERMAL ZONE: UNIT_0401_4B,hourly; !- [J]
Output:Meter:Cumulative,Electricity:Zone:THERMAL ZONE: UNIT_0401_4B,hourly; !- [J]
Output:Meter,InteriorLights:Electricity:Zone:THERMAL ZONE: UNIT_0401_4B,hourly; !- [J]
Output:Meter:Cumulative,InteriorLights:Electricity:Zone:THERMAL ZONE: UNIT_0401_4B,hourly; !- [J]
Output:Meter,Electricity:Zone:THERMAL ZONE: UNIT_0417_4B,hourly; !- [J]
Output:Meter:Cumulative,Electricity:Zone:THERMAL ZONE: UNIT_0417_4B,hourly; !- [J]
Output:Meter,InteriorLights:Electricity:Zone:THERMAL ZONE: UNIT_0417_4B,hourly; !- [J]
Output:Meter:Cumulative,InteriorLights:Electricity:Zone:THERMAL ZONE: UNIT_0417_4B,hourly; !- [J]
Output:Meter,Electricity:Zone:THERMAL ZONE: UNIT_0501_4B,hourly; !- [J]
Output:Meter:Cumulative,Electricity:Zone:THERMAL ZONE: UNIT_0501_4B,hourly; !- [J]
Output:Meter,InteriorLights:Electricity:Zone:THERMAL ZONE: UNIT_0501_4B,hourly; !- [J]
Output:Meter:Cumulative,InteriorLights:Electricity:Zone:THERMAL ZONE: UNIT_0501_4B,hourly; !- [J]
Output:Meter,Electricity:Zone:THERMAL ZONE: UNIT_0517_4B,hourly; !- [J]
Output:Meter:Cumulative,Electricity:Zone:THERMAL ZONE: UNIT_0517_4B,hourly; !- [J]
Output:Meter,InteriorLights:Electricity:Zone:THERMAL ZONE: UNIT_0517_4B,hourly; !- [J]
Output:Meter:Cumulative,InteriorLights:Electricity:Zone:THERMAL ZONE: UNIT_0517_4B,hourly; !- [J]
Output:Meter,Electricity:Zone:THERMAL ZONE: UNIT_2101_4B,hourly; !- [J]
Output:Meter:Cumulative,Electricity:Zone:THERMAL ZONE: UNIT_2101_4B,hourly; !- [J]
Output:Meter,InteriorLights:Electricity:Zone:THERMAL ZONE: UNIT_2101_4B,hourly; !- [J]
Output:Meter:Cumulative,InteriorLights:Electricity:Zone:THERMAL ZONE: UNIT_2101_4B,hourly; !- [J]
Output:Meter,Electricity:Zone:THERMAL ZONE: UNIT_2117_4B,hourly; !- [J]
Output:Meter:Cumulative,Electricity:Zone:THERMAL ZONE: UNIT_2117_4B,hourly; !- [J]
Output:Meter,InteriorLights:Electricity:Zone:THERMAL ZONE: UNIT_2117_4B,hourly; !- [J]
Output:Meter:Cumulative,InteriorLights:Electricity:Zone:THERMAL ZONE: UNIT_2117_4B,hourly; !- [J]
Output:Meter,Electricity:Zone:THERMAL ZONE: RESTROOM_0100,hourly; !- [J]
Output:Meter:Cumulative,Electricity:Zone:THERMAL ZONE: RESTROOM_0100,hourly; !- [J]
Output:Meter,InteriorLights:Electricity:Zone:THERMAL ZONE: RESTROOM_0100,hourly; !- [J]
Output:Meter:Cumulative,InteriorLights:Electricity:Zone:THERMAL ZONE: RESTROOM_0100,hourly; !- [J]
Output:Meter,Electricity:Zone:THERMAL ZONE: RESTROOM_2201,hourly; !- [J]
Output:Meter:Cumulative,Electricity:Zone:THERMAL ZONE: RESTROOM_2201,hourly; !- [J]
Output:Meter,InteriorLights:Electricity:Zone:THERMAL ZONE: RESTROOM_2201,hourly; !- [J]
Output:Meter:Cumulative,InteriorLights:Electricity:Zone:THERMAL ZONE: RESTROOM_2201,hourly; !- [J]
Output:Meter,Electricity:Zone:THERMAL ZONE: RESTROOM_2202,hourly; !- [J]
Output:Meter:Cumulative,Electricity:Zone:THERMAL ZONE: RESTROOM_2202,hourly; !- [J]
Output:Meter,InteriorLights:Electricity:Zone:THERMAL ZONE: RESTROOM_2202,hourly; !- [J]
Output:Meter:Cumulative,InteriorLights:Electricity:Zone:THERMAL ZONE: RESTROOM_2202,hourly; !- [J]
Output:Meter,Electricity:Zone:THERMAL ZONE: STAIR_0101,hourly; !- [J]
Output:Meter:Cumulative,Electricity:Zone:THERMAL ZONE: STAIR_0101,hourly; !- [J]
Output:Meter,InteriorLights:Electricity:Zone:THERMAL ZONE: STAIR_0101,hourly; !- [J]
Output:Meter:Cumulative,InteriorLights:Electricity:Zone:THERMAL ZONE: STAIR_0101,hourly; !- [J]
Output:Meter,Electricity:Zone:THERMAL ZONE: STAIR_0102,hourly; !- [J]
Output:Meter:Cumulative,Electricity:Zone:THERMAL ZONE: STAIR_0102,hourly; !- [J]
Output:Meter,InteriorLights:Electricity:Zone:THERMAL ZONE: STAIR_0102,hourly; !- [J]
Output:Meter:Cumulative,InteriorLights:Electricity:Zone:THERMAL ZONE: STAIR_0102,hourly; !- [J]
Output:Meter,Electricity:Zone:THERMAL ZONE: STAIR_0201,hourly; !- [J]
Output:Meter:Cumulative,Electricity:Zone:THERMAL ZONE: STAIR_0201,hourly; !- [J]
Output:Meter,InteriorLights:Electricity:Zone:THERMAL ZONE: STAIR_0201,hourly; !- [J]
Output:Meter:Cumulative,InteriorLights:Electricity:Zone:THERMAL ZONE: STAIR_0201,hourly; !- [J]
Output:Meter,Electricity:Zone:THERMAL ZONE: STAIR_0202,hourly; !- [J]
Output:Meter:Cumulative,Electricity:Zone:THERMAL ZONE: STAIR_0202,hourly; !- [J]
Output:Meter,InteriorLights:Electricity:Zone:THERMAL ZONE: STAIR_0202,hourly; !- [J]
Output:Meter:Cumulative,InteriorLights:Electricity:Zone:THERMAL ZONE: STAIR_0202,hourly; !- [J]
Output:Meter,Electricity:Zone:THERMAL ZONE: STAIR_0301,hourly; !- [J]
Output:Meter:Cumulative,Electricity:Zone:THERMAL ZONE: STAIR_0301,hourly; !- [J]
Output:Meter,InteriorLights:Electricity:Zone:THERMAL ZONE: STAIR_0301,hourly; !- [J]
Output:Meter:Cumulative,InteriorLights:Electricity:Zone:THERMAL ZONE: STAIR_0301,hourly; !- [J]
Output:Meter,Electricity:Zone:THERMAL ZONE: STAIR_0302,hourly; !- [J]
Output:Meter:Cumulative,Electricity:Zone:THERMAL ZONE: STAIR_0302,hourly; !- [J]
Output:Meter,InteriorLights:Electricity:Zone:THERMAL ZONE: STAIR_0302,hourly; !- [J]
Output:Meter:Cumulative,InteriorLights:Electricity:Zone:THERMAL ZONE: STAIR_0302,hourly; !- [J]
Output:Meter,Electricity:Zone:THERMAL ZONE: STAIR_0401,hourly; !- [J]
Output:Meter:Cumulative,Electricity:Zone:THERMAL ZONE: STAIR_0401,hourly; !- [J]
Output:Meter,InteriorLights:Electricity:Zone:THERMAL ZONE: STAIR_0401,hourly; !- [J]
Output:Meter:Cumulative,InteriorLights:Electricity:Zone:THERMAL ZONE: STAIR_0401,hourly; !- [J]
Output:Meter,Electricity:Zone:THERMAL ZONE: STAIR_0402,hourly; !- [J]
Output:Meter:Cumulative,Electricity:Zone:THERMAL ZONE: STAIR_0402,hourly; !- [J]
Output:Meter,InteriorLights:Electricity:Zone:THERMAL ZONE: STAIR_0402,hourly; !- [J]
Output:Meter:Cumulative,InteriorLights:Electricity:Zone:THERMAL ZONE: STAIR_0402,hourly; !- [J]
Output:Meter,Electricity:Zone:THERMAL ZONE: STAIR_0501,hourly; !- [J]
Output:Meter:Cumulative,Electricity:Zone:THERMAL ZONE: STAIR_0501,hourly; !- [J]
Output:Meter,InteriorLights:Electricity:Zone:THERMAL ZONE: STAIR_0501,hourly; !- [J]
Output:Meter:Cumulative,InteriorLights:Electricity:Zone:THERMAL ZONE: STAIR_0501,hourly; !- [J]
Output:Meter,Electricity:Zone:THERMAL ZONE: STAIR_0502,hourly; !- [J]
Output:Meter:Cumulative,Electricity:Zone:THERMAL ZONE: STAIR_0502,hourly; !- [J]
Output:Meter,InteriorLights:Electricity:Zone:THERMAL ZONE: STAIR_0502,hourly; !- [J]
Output:Meter:Cumulative,InteriorLights:Electricity:Zone:THERMAL ZONE: STAIR_0502,hourly; !- [J]
Output:Meter,Electricity:Zone:THERMAL ZONE: STAIR_2101,hourly; !- [J]
Output:Meter:Cumulative,Electricity:Zone:THERMAL ZONE: STAIR_2101,hourly; !- [J]
Output:Meter,InteriorLights:Electricity:Zone:THERMAL ZONE: STAIR_2101,hourly; !- [J]
Output:Meter:Cumulative,InteriorLights:Electricity:Zone:THERMAL ZONE: STAIR_2101,hourly; !- [J]
Output:Meter,Electricity:Zone:THERMAL ZONE: STAIR_2102,hourly; !- [J]
Output:Meter:Cumulative,Electricity:Zone:THERMAL ZONE: STAIR_2102,hourly; !- [J]
Output:Meter,InteriorLights:Electricity:Zone:THERMAL ZONE: STAIR_2102,hourly; !- [J]
Output:Meter:Cumulative,InteriorLights:Electricity:Zone:THERMAL ZONE: STAIR_2102,hourly; !- [J]
Output:Meter,Electricity:Zone:THERMAL ZONE: STAIR_2201,hourly; !- [J]
Output:Meter:Cumulative,Electricity:Zone:THERMAL ZONE: STAIR_2201,hourly; !- [J]
Output:Meter,InteriorLights:Electricity:Zone:THERMAL ZONE: STAIR_2201,hourly; !- [J]
Output:Meter:Cumulative,InteriorLights:Electricity:Zone:THERMAL ZONE: STAIR_2201,hourly; !- [J]
Output:Meter,Electricity:Zone:THERMAL ZONE: STAIR_2202,hourly; !- [J]
Output:Meter:Cumulative,Electricity:Zone:THERMAL ZONE: STAIR_2202,hourly; !- [J]
Output:Meter,InteriorLights:Electricity:Zone:THERMAL ZONE: STAIR_2202,hourly; !- [J]
Output:Meter:Cumulative,InteriorLights:Electricity:Zone:THERMAL ZONE: STAIR_2202,hourly; !- [J]
Output:Meter,Electricity:Zone:THERMAL ZONE: STAIR_2301,hourly; !- [J]
Output:Meter:Cumulative,Electricity:Zone:THERMAL ZONE: STAIR_2301,hourly; !- [J]
Output:Meter,InteriorLights:Electricity:Zone:THERMAL ZONE: STAIR_2301,hourly; !- [J]
Output:Meter:Cumulative,InteriorLights:Electricity:Zone:THERMAL ZONE: STAIR_2301,hourly; !- [J]
Output:Meter,Electricity:Zone:THERMAL ZONE: STAIR_2302,hourly; !- [J]
Output:Meter:Cumulative,Electricity:Zone:THERMAL ZONE: STAIR_2302,hourly; !- [J]
Output:Meter,InteriorLights:Electricity:Zone:THERMAL ZONE: STAIR_2302,hourly; !- [J]
Output:Meter:Cumulative,InteriorLights:Electricity:Zone:THERMAL ZONE: STAIR_2302,hourly; !- [J]
Output:Meter,Electricity:Zone:THERMAL ZONE: STAIR_P101,hourly; !- [J]
Output:Meter:Cumulative,Electricity:Zone:THERMAL ZONE: STAIR_P101,hourly; !- [J]
Output:Meter,InteriorLights:Electricity:Zone:THERMAL ZONE: STAIR_P101,hourly; !- [J]
Output:Meter:Cumulative,InteriorLights:Electricity:Zone:THERMAL ZONE: STAIR_P101,hourly; !- [J]
Output:Meter,Electricity:Zone:THERMAL ZONE: STAIR_P102,hourly; !- [J]
Output:Meter:Cumulative,Electricity:Zone:THERMAL ZONE: STAIR_P102,hourly; !- [J]
Output:Meter,InteriorLights:Electricity:Zone:THERMAL ZONE: STAIR_P102,hourly; !- [J]
Output:Meter:Cumulative,InteriorLights:Electricity:Zone:THERMAL ZONE: STAIR_P102,hourly; !- [J]
Output:Meter,Electricity:Zone:THERMAL ZONE: STAIR_P201,hourly; !- [J]
Output:Meter:Cumulative,Electricity:Zone:THERMAL ZONE: STAIR_P201,hourly; !- [J]
Output:Meter,InteriorLights:Electricity:Zone:THERMAL ZONE: STAIR_P201,hourly; !- [J]
Output:Meter:Cumulative,InteriorLights:Electricity:Zone:THERMAL ZONE: STAIR_P201,hourly; !- [J]
Output:Meter,Electricity:Zone:THERMAL ZONE: STAIR_P202,hourly; !- [J]
Output:Meter:Cumulative,Electricity:Zone:THERMAL ZONE: STAIR_P202,hourly; !- [J]
Output:Meter,InteriorLights:Electricity:Zone:THERMAL ZONE: STAIR_P202,hourly; !- [J]
Output:Meter:Cumulative,InteriorLights:Electricity:Zone:THERMAL ZONE: STAIR_P202,hourly; !- [J]
Output:Meter,Electricity:Zone:THERMAL ZONE: PACKAGE_0100,hourly; !- [J]
Output:Meter:Cumulative,Electricity:Zone:THERMAL ZONE: PACKAGE_0100,hourly; !- [J]
Output:Meter,InteriorLights:Electricity:Zone:THERMAL ZONE: PACKAGE_0100,hourly; !- [J]
Output:Meter:Cumulative,InteriorLights:Electricity:Zone:THERMAL ZONE: PACKAGE_0100,hourly; !- [J]
Output:Meter,Electricity:Zone:THERMAL ZONE: RETAIL STORAGE_0100,hourly; !- [J]
Output:Meter:Cumulative,Electricity:Zone:THERMAL ZONE: RETAIL STORAGE_0100,hourly; !- [J]
Output:Meter,InteriorLights:Electricity:Zone:THERMAL ZONE: RETAIL STORAGE_0100,hourly; !- [J]
Output:Meter:Cumulative,InteriorLights:Electricity:Zone:THERMAL ZONE: RETAIL STORAGE_0100,hourly; !- [J]
Output:Meter,Electricity:Zone:THERMAL ZONE: STOR_0100,hourly; !- [J]
Output:Meter:Cumulative,Electricity:Zone:THERMAL ZONE: STOR_0100,hourly; !- [J]
Output:Meter,InteriorLights:Electricity:Zone:THERMAL ZONE: STOR_0100,hourly; !- [J]
Output:Meter:Cumulative,InteriorLights:Electricity:Zone:THERMAL ZONE: STOR_0100,hourly; !- [J]
Output:Meter,Electricity:Zone:THERMAL ZONE: STOR_0200,hourly; !- [J]
Output:Meter:Cumulative,Electricity:Zone:THERMAL ZONE: STOR_0200,hourly; !- [J]
Output:Meter,InteriorLights:Electricity:Zone:THERMAL ZONE: STOR_0200,hourly; !- [J]
Output:Meter:Cumulative,InteriorLights:Electricity:Zone:THERMAL ZONE: STOR_0200,hourly; !- [J]
Output:Meter,Electricity:Zone:THERMAL ZONE: STOR_0300,hourly; !- [J]
Output:Meter:Cumulative,Electricity:Zone:THERMAL ZONE: STOR_0300,hourly; !- [J]
Output:Meter,InteriorLights:Electricity:Zone:THERMAL ZONE: STOR_0300,hourly; !- [J]
Output:Meter:Cumulative,InteriorLights:Electricity:Zone:THERMAL ZONE: STOR_0300,hourly; !- [J]
Output:Meter,Electricity:Zone:THERMAL ZONE: STOR_0400,hourly; !- [J]
Output:Meter:Cumulative,Electricity:Zone:THERMAL ZONE: STOR_0400,hourly; !- [J]
Output:Meter,InteriorLights:Electricity:Zone:THERMAL ZONE: STOR_0400,hourly; !- [J]
Output:Meter:Cumulative,InteriorLights:Electricity:Zone:THERMAL ZONE: STOR_0400,hourly; !- [J]
Output:Meter,Electricity:Zone:THERMAL ZONE: STOR_0500,hourly; !- [J]
Output:Meter:Cumulative,Electricity:Zone:THERMAL ZONE: STOR_0500,hourly; !- [J]
Output:Meter,InteriorLights:Electricity:Zone:THERMAL ZONE: STOR_0500,hourly; !- [J]
Output:Meter:Cumulative,InteriorLights:Electricity:Zone:THERMAL ZONE: STOR_0500,hourly; !- [J]
Output:Meter,Electricity:Zone:THERMAL ZONE: STOR_2100,hourly; !- [J]
Output:Meter:Cumulative,Electricity:Zone:THERMAL ZONE: STOR_2100,hourly; !- [J]
Output:Meter,InteriorLights:Electricity:Zone:THERMAL ZONE: STOR_2100,hourly; !- [J]
Output:Meter:Cumulative,InteriorLights:Electricity:Zone:THERMAL ZONE: STOR_2100,hourly; !- [J]
Output:Meter,Electricity:Zone:THERMAL ZONE: STOR_P100,hourly; !- [J]
Output:Meter:Cumulative,Electricity:Zone:THERMAL ZONE: STOR_P100,hourly; !- [J]
Output:Meter,InteriorLights:Electricity:Zone:THERMAL ZONE: STOR_P100,hourly; !- [J]
Output:Meter:Cumulative,InteriorLights:Electricity:Zone:THERMAL ZONE: STOR_P100,hourly; !- [J]
Output:Meter,Electricity:Zone:THERMAL ZONE: STOR_P200,hourly; !- [J]
Output:Meter:Cumulative,Electricity:Zone:THERMAL ZONE: STOR_P200,hourly; !- [J]
Output:Meter,InteriorLights:Electricity:Zone:THERMAL ZONE: STOR_P200,hourly; !- [J]
Output:Meter:Cumulative,InteriorLights:Electricity:Zone:THERMAL ZONE: STOR_P200,hourly; !- [J]
Output:Meter,Electricity:Zone:THERMAL ZONE: TRASH_0200,hourly; !- [J]
Output:Meter:Cumulative,Electricity:Zone:THERMAL ZONE: TRASH_0200,hourly; !- [J]
Output:Meter,InteriorLights:Electricity:Zone:THERMAL ZONE: TRASH_0200,hourly; !- [J]
Output:Meter:Cumulative,InteriorLights:Electricity:Zone:THERMAL ZONE: TRASH_0200,hourly; !- [J]
Output:Meter,Electricity:Zone:THERMAL ZONE: TRASH_0300,hourly; !- [J]
Output:Meter:Cumulative,Electricity:Zone:THERMAL ZONE: TRASH_0300,hourly; !- [J]
Output:Meter,InteriorLights:Electricity:Zone:THERMAL ZONE: TRASH_0300,hourly; !- [J]
Output:Meter:Cumulative,InteriorLights:Electricity:Zone:THERMAL ZONE: TRASH_0300,hourly; !- [J]
Output:Meter,Electricity:Zone:THERMAL ZONE: TRASH_0400,hourly; !- [J]
Output:Meter:Cumulative,Electricity:Zone:THERMAL ZONE: TRASH_0400,hourly; !- [J]
Output:Meter,InteriorLights:Electricity:Zone:THERMAL ZONE: TRASH_0400,hourly; !- [J]
Output:Meter:Cumulative,InteriorLights:Electricity:Zone:THERMAL ZONE: TRASH_0400,hourly; !- [J]
Output:Meter,Electricity:Zone:THERMAL ZONE: TRASH_0500,hourly; !- [J]
Output:Meter:Cumulative,Electricity:Zone:THERMAL ZONE: TRASH_0500,hourly; !- [J]
Output:Meter,InteriorLights:Electricity:Zone:THERMAL ZONE: TRASH_0500,hourly; !- [J]
Output:Meter:Cumulative,InteriorLights:Electricity:Zone:THERMAL ZONE: TRASH_0500,hourly; !- [J]
Output:Meter,Electricity:Zone:THERMAL ZONE: TRASH_2100,hourly; !- [J]
Output:Meter:Cumulative,Electricity:Zone:THERMAL ZONE: TRASH_2100,hourly; !- [J]
Output:Meter,InteriorLights:Electricity:Zone:THERMAL ZONE: TRASH_2100,hourly; !- [J]
Output:Meter:Cumulative,InteriorLights:Electricity:Zone:THERMAL ZONE: TRASH_2100,hourly; !- [J]
Output:Meter,Electricity:Zone:THERMAL ZONE: TRASH_2200,hourly; !- [J]
Output:Meter:Cumulative,Electricity:Zone:THERMAL ZONE: TRASH_2200,hourly; !- [J]
Output:Meter,InteriorLights:Electricity:Zone:THERMAL ZONE: TRASH_2200,hourly; !- [J]
Output:Meter:Cumulative,InteriorLights:Electricity:Zone:THERMAL ZONE: TRASH_2200,hourly; !- [J]
Output:Meter,Electricity:Zone:THERMAL ZONE: ELEV CONTROL_2301,hourly; !- [J]
Output:Meter:Cumulative,Electricity:Zone:THERMAL ZONE: ELEV CONTROL_2301,hourly; !- [J]
Output:Meter,InteriorLights:Electricity:Zone:THERMAL ZONE: ELEV CONTROL_2301,hourly; !- [J]
Output:Meter:Cumulative,InteriorLights:Electricity:Zone:THERMAL ZONE: ELEV CONTROL_2301,hourly; !- [J]
Output:Meter,Electricity:Zone:THERMAL ZONE: ELEV CONTROL_2302,hourly; !- [J]
Output:Meter:Cumulative,Electricity:Zone:THERMAL ZONE: ELEV CONTROL_2302,hourly; !- [J]
Output:Meter,InteriorLights:Electricity:Zone:THERMAL ZONE: ELEV CONTROL_2302,hourly; !- [J]
Output:Meter:Cumulative,InteriorLights:Electricity:Zone:THERMAL ZONE: ELEV CONTROL_2302,hourly; !- [J]
Output:Meter,Electricity:Zone:THERMAL ZONE: XFMR_0201,hourly; !- [J]
Output:Meter:Cumulative,Electricity:Zone:THERMAL ZONE: XFMR_0201,hourly; !- [J]
Output:Meter,InteriorLights:Electricity:Zone:THERMAL ZONE: XFMR_0201,hourly; !- [J]
Output:Meter:Cumulative,InteriorLights:Electricity:Zone:THERMAL ZONE: XFMR_0201,hourly; !- [J]
Output:Meter,Electricity:Zone:THERMAL ZONE: XFMR_0401,hourly; !- [J]
Output:Meter:Cumulative,Electricity:Zone:THERMAL ZONE: XFMR_0401,hourly; !- [J]
Output:Meter,InteriorLights:Electricity:Zone:THERMAL ZONE: XFMR_0401,hourly; !- [J]
Output:Meter:Cumulative,InteriorLights:Electricity:Zone:THERMAL ZONE: XFMR_0401,hourly; !- [J]
Output:Meter,InteriorEquipment:Electricity,hourly; !- [J]
Output:Meter:Cumulative,InteriorEquipment:Electricity,hourly; !- [J]
Output:Meter,InteriorEquipment:Electricity:Zone:THERMAL ZONE: AMEN_0300,hourly; !- [J]
Output:Meter:Cumulative,InteriorEquipment:Electricity:Zone:THERMAL ZONE: AMEN_0300,hourly; !- [J]
Output:Meter,General:InteriorEquipment:Electricity,hourly; !- [J]
Output:Meter:Cumulative,General:InteriorEquipment:Electricity,hourly; !- [J]
Output:Meter,InteriorEquipment:Electricity:Zone:THERMAL ZONE: AMEN_0400,hourly; !- [J]
Output:Meter:Cumulative,InteriorEquipment:Electricity:Zone:THERMAL ZONE: AMEN_0400,hourly; !- [J]
Output:Meter,InteriorEquipment:Electricity:Zone:THERMAL ZONE: AMEN_0501,hourly; !- [J]
Output:Meter:Cumulative,InteriorEquipment:Electricity:Zone:THERMAL ZONE: AMEN_0501,hourly; !- [J]
Output:Meter,InteriorEquipment:Electricity:Zone:THERMAL ZONE: AMEN_2100,hourly; !- [J]
Output:Meter:Cumulative,InteriorEquipment:Electricity:Zone:THERMAL ZONE: AMEN_2100,hourly; !- [J]
Output:Meter,InteriorEquipment:Electricity:Zone:THERMAL ZONE: AMEN_2200,hourly; !- [J]
Output:Meter:Cumulative,InteriorEquipment:Electricity:Zone:THERMAL ZONE: AMEN_2200,hourly; !- [J]
Output:Meter,InteriorEquipment:Electricity:Zone:THERMAL ZONE: AMEN_2300,hourly; !- [J]
Output:Meter:Cumulative,InteriorEquipment:Electricity:Zone:THERMAL ZONE: AMEN_2300,hourly; !- [J]
Output:Meter,InteriorEquipment:Electricity:Zone:THERMAL ZONE: FITNESS_2200,hourly; !- [J]
Output:Meter:Cumulative,InteriorEquipment:Electricity:Zone:THERMAL ZONE: FITNESS_2200,hourly; !- [J]
Output:Meter,InteriorEquipment:Electricity:Zone:THERMAL ZONE: LOUNGE_2300,hourly; !- [J]
Output:Meter:Cumulative,InteriorEquipment:Electricity:Zone:THERMAL ZONE: LOUNGE_2300,hourly; !- [J]
Output:Meter,InteriorEquipment:Electricity:Zone:THERMAL ZONE: LOUNGE_2301,hourly; !- [J]
Output:Meter:Cumulative,InteriorEquipment:Electricity:Zone:THERMAL ZONE: LOUNGE_2301,hourly; !- [J]
Output:Meter,InteriorEquipment:Electricity:Zone:THERMAL ZONE: ELEC_0300,hourly; !- [J]
Output:Meter:Cumulative,InteriorEquipment:Electricity:Zone:THERMAL ZONE: ELEC_0300,hourly; !- [J]
Output:Meter,InteriorEquipment:Electricity:Zone:THERMAL ZONE: ELEC_0400,hourly; !- [J]
Output:Meter:Cumulative,InteriorEquipment:Electricity:Zone:THERMAL ZONE: ELEC_0400,hourly; !- [J]
Output:Meter,InteriorEquipment:Electricity:Zone:THERMAL ZONE: FCC_0100,hourly; !- [J]
Output:Meter:Cumulative,InteriorEquipment:Electricity:Zone:THERMAL ZONE: FCC_0100,hourly; !- [J]
Output:Meter,InteriorEquipment:Electricity:Zone:THERMAL ZONE: MECH_0200,hourly; !- [J]
Output:Meter:Cumulative,InteriorEquipment:Electricity:Zone:THERMAL ZONE: MECH_0200,hourly; !- [J]
Output:Meter,InteriorEquipment:Electricity:Zone:THERMAL ZONE: MECH_0300,hourly; !- [J]
Output:Meter:Cumulative,InteriorEquipment:Electricity:Zone:THERMAL ZONE: MECH_0300,hourly; !- [J]
Output:Meter,InteriorEquipment:Electricity:Zone:THERMAL ZONE: MECH_0400,hourly; !- [J]
Output:Meter:Cumulative,InteriorEquipment:Electricity:Zone:THERMAL ZONE: MECH_0400,hourly; !- [J]
Output:Meter,InteriorEquipment:Electricity:Zone:THERMAL ZONE: MECH_0500,hourly; !- [J]
Output:Meter:Cumulative,InteriorEquipment:Electricity:Zone:THERMAL ZONE: MECH_0500,hourly; !- [J]
Output:Meter,InteriorEquipment:Electricity:Zone:THERMAL ZONE: MECH_2100,hourly; !- [J]
Output:Meter:Cumulative,InteriorEquipment:Electricity:Zone:THERMAL ZONE: MECH_2100,hourly; !- [J]
Output:Meter,InteriorEquipment:Electricity:Zone:THERMAL ZONE: BOH_0100,hourly; !- [J]
Output:Meter:Cumulative,InteriorEquipment:Electricity:Zone:THERMAL ZONE: BOH_0100,hourly; !- [J]
Output:Meter,InteriorEquipment:Electricity:Zone:THERMAL ZONE: LEASING_0100,hourly; !- [J]
Output:Meter:Cumulative,InteriorEquipment:Electricity:Zone:THERMAL ZONE: LEASING_0100,hourly; !- [J]
Output:Meter,InteriorEquipment:Electricity:Zone:THERMAL ZONE: RETAIL_0100,hourly; !- [J]
Output:Meter:Cumulative,InteriorEquipment:Electricity:Zone:THERMAL ZONE: RETAIL_0100,hourly; !- [J]
Output:Meter,InteriorEquipment:Electricity:Zone:THERMAL ZONE: UNIT_0202,hourly; !- [J]
Output:Meter:Cumulative,InteriorEquipment:Electricity:Zone:THERMAL ZONE: UNIT_0202,hourly; !- [J]
Output:Meter,InteriorEquipment:Electricity:Zone:THERMAL ZONE: UNIT_0203,hourly; !- [J]
Output:Meter:Cumulative,InteriorEquipment:Electricity:Zone:THERMAL ZONE: UNIT_0203,hourly; !- [J]
Output:Meter,InteriorEquipment:Electricity:Zone:THERMAL ZONE: UNIT_0204,hourly; !- [J]
Output:Meter:Cumulative,InteriorEquipment:Electricity:Zone:THERMAL ZONE: UNIT_0204,hourly; !- [J]
Output:Meter,InteriorEquipment:Electricity:Zone:THERMAL ZONE: UNIT_0205,hourly; !- [J]
Output:Meter:Cumulative,InteriorEquipment:Electricity:Zone:THERMAL ZONE: UNIT_0205,hourly; !- [J]
Output:Meter,InteriorEquipment:Electricity:Zone:THERMAL ZONE: UNIT_0206,hourly; !- [J]
Output:Meter:Cumulative,InteriorEquipment:Electricity:Zone:THERMAL ZONE: UNIT_0206,hourly; !- [J]
Output:Meter,InteriorEquipment:Electricity:Zone:THERMAL ZONE: UNIT_0207,hourly; !- [J]
Output:Meter:Cumulative,InteriorEquipment:Electricity:Zone:THERMAL ZONE: UNIT_0207,hourly; !- [J]
Output:Meter,InteriorEquipment:Electricity:Zone:THERMAL ZONE: UNIT_0208,hourly; !- [J]
Output:Meter:Cumulative,InteriorEquipment:Electricity:Zone:THERMAL ZONE: UNIT_0208,hourly; !- [J]
Output:Meter,InteriorEquipment:Electricity:Zone:THERMAL ZONE: UNIT_0210,hourly; !- [J]
Output:Meter:Cumulative,InteriorEquipment:Electricity:Zone:THERMAL ZONE: UNIT_0210,hourly; !- [J]
Output:Meter,InteriorEquipment:Electricity:Zone:THERMAL ZONE: UNIT_0212,hourly; !- [J]
Output:Meter:Cumulative,InteriorEquipment:Electricity:Zone:THERMAL ZONE: UNIT_0212,hourly; !- [J]
Output:Meter,InteriorEquipment:Electricity:Zone:THERMAL ZONE: UNIT_0213,hourly; !- [J]
Output:Meter:Cumulative,InteriorEquipment:Electricity:Zone:THERMAL ZONE: UNIT_0213,hourly; !- [J]
Output:Meter,InteriorEquipment:Electricity:Zone:THERMAL ZONE: UNIT_0214,hourly; !- [J]
Output:Meter:Cumulative,InteriorEquipment:Electricity:Zone:THERMAL ZONE: UNIT_0214,hourly; !- [J]
Output:Meter,InteriorEquipment:Electricity:Zone:THERMAL ZONE: UNIT_0215,hourly; !- [J]
Output:Meter:Cumulative,InteriorEquipment:Electricity:Zone:THERMAL ZONE: UNIT_0215,hourly; !- [J]
Output:Meter,InteriorEquipment:Electricity:Zone:THERMAL ZONE: UNIT_0216,hourly; !- [J]
Output:Meter:Cumulative,InteriorEquipment:Electricity:Zone:THERMAL ZONE: UNIT_0216,hourly; !- [J]
Output:Meter,InteriorEquipment:Electricity:Zone:THERMAL ZONE: UNIT_0217,hourly; !- [J]
Output:Meter:Cumulative,InteriorEquipment:Electricity:Zone:THERMAL ZONE: UNIT_0217,hourly; !- [J]
Output:Meter,InteriorEquipment:Electricity:Zone:THERMAL ZONE: UNIT_0218,hourly; !- [J]
Output:Meter:Cumulative,InteriorEquipment:Electricity:Zone:THERMAL ZONE: UNIT_0218,hourly; !- [J]
Output:Meter,InteriorEquipment:Electricity:Zone:THERMAL ZONE: UNIT_0302,hourly; !- [J]
Output:Meter:Cumulative,InteriorEquipment:Electricity:Zone:THERMAL ZONE: UNIT_0302,hourly; !- [J]
Output:Meter,InteriorEquipment:Electricity:Zone:THERMAL ZONE: UNIT_0303,hourly; !- [J]
Output:Meter:Cumulative,InteriorEquipment:Electricity:Zone:THERMAL ZONE: UNIT_0303,hourly; !- [J]
Output:Meter,InteriorEquipment:Electricity:Zone:THERMAL ZONE: UNIT_0304,hourly; !- [J]
Output:Meter:Cumulative,InteriorEquipment:Electricity:Zone:THERMAL ZONE: UNIT_0304,hourly; !- [J]
Output:Meter,InteriorEquipment:Electricity:Zone:THERMAL ZONE: UNIT_0305,hourly; !- [J]
Output:Meter:Cumulative,InteriorEquipment:Electricity:Zone:THERMAL ZONE: UNIT_0305,hourly; !- [J]
Output:Meter,InteriorEquipment:Electricity:Zone:THERMAL ZONE: UNIT_0306,hourly; !- [J]
Output:Meter:Cumulative,InteriorEquipment:Electricity:Zone:THERMAL ZONE: UNIT_0306,hourly; !- [J]
Output:Meter,InteriorEquipment:Electricity:Zone:THERMAL ZONE: UNIT_0308,hourly; !- [J]
Output:Meter:Cumulative,InteriorEquipment:Electricity:Zone:THERMAL ZONE: UNIT_0308,hourly; !- [J]
Output:Meter,InteriorEquipment:Electricity:Zone:THERMAL ZONE: UNIT_0310,hourly; !- [J]
Output:Meter:Cumulative,InteriorEquipment:Electricity:Zone:THERMAL ZONE: UNIT_0310,hourly; !- [J]
Output:Meter,InteriorEquipment:Electricity:Zone:THERMAL ZONE: UNIT_0311,hourly; !- [J]
Output:Meter:Cumulative,InteriorEquipment:Electricity:Zone:THERMAL ZONE: UNIT_0311,hourly; !- [J]
Output:Meter,InteriorEquipment:Electricity:Zone:THERMAL ZONE: UNIT_0312,hourly; !- [J]
Output:Meter:Cumulative,InteriorEquipment:Electricity:Zone:THERMAL ZONE: UNIT_0312,hourly; !- [J]
Output:Meter,InteriorEquipment:Electricity:Zone:THERMAL ZONE: UNIT_0313,hourly; !- [J]
Output:Meter:Cumulative,InteriorEquipment:Electricity:Zone:THERMAL ZONE: UNIT_0313,hourly; !- [J]
Output:Meter,InteriorEquipment:Electricity:Zone:THERMAL ZONE: UNIT_0314,hourly; !- [J]
Output:Meter:Cumulative,InteriorEquipment:Electricity:Zone:THERMAL ZONE: UNIT_0314,hourly; !- [J]
Output:Meter,InteriorEquipment:Electricity:Zone:THERMAL ZONE: UNIT_0315,hourly; !- [J]
Output:Meter:Cumulative,InteriorEquipment:Electricity:Zone:THERMAL ZONE: UNIT_0315,hourly; !- [J]
Output:Meter,InteriorEquipment:Electricity:Zone:THERMAL ZONE: UNIT_0316,hourly; !- [J]
Output:Meter:Cumulative,InteriorEquipment:Electricity:Zone:THERMAL ZONE: UNIT_0316,hourly; !- [J]
Output:Meter,InteriorEquipment:Electricity:Zone:THERMAL ZONE: UNIT_0402,hourly; !- [J]
Output:Meter:Cumulative,InteriorEquipment:Electricity:Zone:THERMAL ZONE: UNIT_0402,hourly; !- [J]
Output:Meter,InteriorEquipment:Electricity:Zone:THERMAL ZONE: UNIT_0403,hourly; !- [J]
Output:Meter:Cumulative,InteriorEquipment:Electricity:Zone:THERMAL ZONE: UNIT_0403,hourly; !- [J]
Output:Meter,InteriorEquipment:Electricity:Zone:THERMAL ZONE: UNIT_0404,hourly; !- [J]
Output:Meter:Cumulative,InteriorEquipment:Electricity:Zone:THERMAL ZONE: UNIT_0404,hourly; !- [J]
Output:Meter,InteriorEquipment:Electricity:Zone:THERMAL ZONE: UNIT_0405,hourly; !- [J]
Output:Meter:Cumulative,InteriorEquipment:Electricity:Zone:THERMAL ZONE: UNIT_0405,hourly; !- [J]
Output:Meter,InteriorEquipment:Electricity:Zone:THERMAL ZONE: UNIT_0406,hourly; !- [J]
Output:Meter:Cumulative,InteriorEquipment:Electricity:Zone:THERMAL ZONE: UNIT_0406,hourly; !- [J]
Output:Meter,InteriorEquipment:Electricity:Zone:THERMAL ZONE: UNIT_0408,hourly; !- [J]
Output:Meter:Cumulative,InteriorEquipment:Electricity:Zone:THERMAL ZONE: UNIT_0408,hourly; !- [J]
Output:Meter,InteriorEquipment:Electricity:Zone:THERMAL ZONE: UNIT_0410,hourly; !- [J]
Output:Meter:Cumulative,InteriorEquipment:Electricity:Zone:THERMAL ZONE: UNIT_0410,hourly; !- [J]
Output:Meter,InteriorEquipment:Electricity:Zone:THERMAL ZONE: UNIT_0411,hourly; !- [J]
Output:Meter:Cumulative,InteriorEquipment:Electricity:Zone:THERMAL ZONE: UNIT_0411,hourly; !- [J]
Output:Meter,InteriorEquipment:Electricity:Zone:THERMAL ZONE: UNIT_0412,hourly; !- [J]
Output:Meter:Cumulative,InteriorEquipment:Electricity:Zone:THERMAL ZONE: UNIT_0412,hourly; !- [J]
Output:Meter,InteriorEquipment:Electricity:Zone:THERMAL ZONE: UNIT_0413,hourly; !- [J]
Output:Meter:Cumulative,InteriorEquipment:Electricity:Zone:THERMAL ZONE: UNIT_0413,hourly; !- [J]
Output:Meter,InteriorEquipment:Electricity:Zone:THERMAL ZONE: UNIT_0414,hourly; !- [J]
Output:Meter:Cumulative,InteriorEquipment:Electricity:Zone:THERMAL ZONE: UNIT_0414,hourly; !- [J]
Output:Meter,InteriorEquipment:Electricity:Zone:THERMAL ZONE: UNIT_0415,hourly; !- [J]
Output:Meter:Cumulative,InteriorEquipment:Electricity:Zone:THERMAL ZONE: UNIT_0415,hourly; !- [J]
Output:Meter,InteriorEquipment:Electricity:Zone:THERMAL ZONE: UNIT_0416,hourly; !- [J]
Output:Meter:Cumulative,InteriorEquipment:Electricity:Zone:THERMAL ZONE: UNIT_0416,hourly; !- [J]
Output:Meter,InteriorEquipment:Electricity:Zone:THERMAL ZONE: UNIT_0502,hourly; !- [J]
Output:Meter:Cumulative,InteriorEquipment:Electricity:Zone:THERMAL ZONE: UNIT_0502,hourly; !- [J]
Output:Meter,InteriorEquipment:Electricity:Zone:THERMAL ZONE: UNIT_0503,hourly; !- [J]
Output:Meter:Cumulative,InteriorEquipment:Electricity:Zone:THERMAL ZONE: UNIT_0503,hourly; !- [J]
Output:Meter,InteriorEquipment:Electricity:Zone:THERMAL ZONE: UNIT_0504,hourly; !- [J]
Output:Meter:Cumulative,InteriorEquipment:Electricity:Zone:THERMAL ZONE: UNIT_0504,hourly; !- [J]
Output:Meter,InteriorEquipment:Electricity:Zone:THERMAL ZONE: UNIT_0505,hourly; !- [J]
Output:Meter:Cumulative,InteriorEquipment:Electricity:Zone:THERMAL ZONE: UNIT_0505,hourly; !- [J]
Output:Meter,InteriorEquipment:Electricity:Zone:THERMAL ZONE: UNIT_0506,hourly; !- [J]
Output:Meter:Cumulative,InteriorEquipment:Electricity:Zone:THERMAL ZONE: UNIT_0506,hourly; !- [J]
Output:Meter,InteriorEquipment:Electricity:Zone:THERMAL ZONE: UNIT_0508,hourly; !- [J]
Output:Meter:Cumulative,InteriorEquipment:Electricity:Zone:THERMAL ZONE: UNIT_0508,hourly; !- [J]
Output:Meter,InteriorEquipment:Electricity:Zone:THERMAL ZONE: UNIT_0510,hourly; !- [J]
Output:Meter:Cumulative,InteriorEquipment:Electricity:Zone:THERMAL ZONE: UNIT_0510,hourly; !- [J]
Output:Meter,InteriorEquipment:Electricity:Zone:THERMAL ZONE: UNIT_0511,hourly; !- [J]
Output:Meter:Cumulative,InteriorEquipment:Electricity:Zone:THERMAL ZONE: UNIT_0511,hourly; !- [J]
Output:Meter,InteriorEquipment:Electricity:Zone:THERMAL ZONE: UNIT_0512,hourly; !- [J]
Output:Meter:Cumulative,InteriorEquipment:Electricity:Zone:THERMAL ZONE: UNIT_0512,hourly; !- [J]
Output:Meter,InteriorEquipment:Electricity:Zone:THERMAL ZONE: UNIT_0513,hourly; !- [J]
Output:Meter:Cumulative,InteriorEquipment:Electricity:Zone:THERMAL ZONE: UNIT_0513,hourly; !- [J]
Output:Meter,InteriorEquipment:Electricity:Zone:THERMAL ZONE: UNIT_0514,hourly; !- [J]
Output:Meter:Cumulative,InteriorEquipment:Electricity:Zone:THERMAL ZONE: UNIT_0514,hourly; !- [J]
Output:Meter,InteriorEquipment:Electricity:Zone:THERMAL ZONE: UNIT_0515,hourly; !- [J]
Output:Meter:Cumulative,InteriorEquipment:Electricity:Zone:THERMAL ZONE: UNIT_0515,hourly; !- [J]
Output:Meter,InteriorEquipment:Electricity:Zone:THERMAL ZONE: UNIT_0516,hourly; !- [J]
Output:Meter:Cumulative,InteriorEquipment:Electricity:Zone:THERMAL ZONE: UNIT_0516,hourly; !- [J]
Output:Meter,InteriorEquipment:Electricity:Zone:THERMAL ZONE: UNIT_2102,hourly; !- [J]
Output:Meter:Cumulative,InteriorEquipment:Electricity:Zone:THERMAL ZONE: UNIT_2102,hourly; !- [J]
Output:Meter,InteriorEquipment:Electricity:Zone:THERMAL ZONE: UNIT_2103,hourly; !- [J]
Output:Meter:Cumulative,InteriorEquipment:Electricity:Zone:THERMAL ZONE: UNIT_2103,hourly; !- [J]
Output:Meter,InteriorEquipment:Electricity:Zone:THERMAL ZONE: UNIT_2104,hourly; !- [J]
Output:Meter:Cumulative,InteriorEquipment:Electricity:Zone:THERMAL ZONE: UNIT_2104,hourly; !- [J]
Output:Meter,InteriorEquipment:Electricity:Zone:THERMAL ZONE: UNIT_2105,hourly; !- [J]
Output:Meter:Cumulative,InteriorEquipment:Electricity:Zone:THERMAL ZONE: UNIT_2105,hourly; !- [J]
Output:Meter,InteriorEquipment:Electricity:Zone:THERMAL ZONE: UNIT_2106,hourly; !- [J]
Output:Meter:Cumulative,InteriorEquipment:Electricity:Zone:THERMAL ZONE: UNIT_2106,hourly; !- [J]
Output:Meter,InteriorEquipment:Electricity:Zone:THERMAL ZONE: UNIT_2108,hourly; !- [J]
Output:Meter:Cumulative,InteriorEquipment:Electricity:Zone:THERMAL ZONE: UNIT_2108,hourly; !- [J]
Output:Meter,InteriorEquipment:Electricity:Zone:THERMAL ZONE: UNIT_2110,hourly; !- [J]
Output:Meter:Cumulative,InteriorEquipment:Electricity:Zone:THERMAL ZONE: UNIT_2110,hourly; !- [J]
Output:Meter,InteriorEquipment:Electricity:Zone:THERMAL ZONE: UNIT_2111,hourly; !- [J]
Output:Meter:Cumulative,InteriorEquipment:Electricity:Zone:THERMAL ZONE: UNIT_2111,hourly; !- [J]
Output:Meter,InteriorEquipment:Electricity:Zone:THERMAL ZONE: UNIT_2112,hourly; !- [J]
Output:Meter:Cumulative,InteriorEquipment:Electricity:Zone:THERMAL ZONE: UNIT_2112,hourly; !- [J]
Output:Meter,InteriorEquipment:Electricity:Zone:THERMAL ZONE: UNIT_2113,hourly; !- [J]
Output:Meter:Cumulative,InteriorEquipment:Electricity:Zone:THERMAL ZONE: UNIT_2113,hourly; !- [J]
Output:Meter,InteriorEquipment:Electricity:Zone:THERMAL ZONE: UNIT_2114,hourly; !- [J]
Output:Meter:Cumulative,InteriorEquipment:Electricity:Zone:THERMAL ZONE: UNIT_2114,hourly; !- [J]
Output:Meter,InteriorEquipment:Electricity:Zone:THERMAL ZONE: UNIT_2115,hourly; !- [J]
Output:Meter:Cumulative,InteriorEquipment:Electricity:Zone:THERMAL ZONE: UNIT_2115,hourly; !- [J]
Output:Meter,InteriorEquipment:Electricity:Zone:THERMAL ZONE: UNIT_2116,hourly; !- [J]
Output:Meter:Cumulative,InteriorEquipment:Electricity:Zone:THERMAL ZONE: UNIT_2116,hourly; !- [J]
Output:Meter,InteriorEquipment:Electricity:Zone:THERMAL ZONE: UNIT_0211_2B,hourly; !- [J]
Output:Meter:Cumulative,InteriorEquipment:Electricity:Zone:THERMAL ZONE: UNIT_0211_2B,hourly; !- [J]
Output:Meter,InteriorEquipment:Electricity:Zone:THERMAL ZONE: UNIT_0309_2B,hourly; !- [J]
Output:Meter:Cumulative,InteriorEquipment:Electricity:Zone:THERMAL ZONE: UNIT_0309_2B,hourly; !- [J]
Output:Meter,InteriorEquipment:Electricity:Zone:THERMAL ZONE: UNIT_0409_2B,hourly; !- [J]
Output:Meter:Cumulative,InteriorEquipment:Electricity:Zone:THERMAL ZONE: UNIT_0409_2B,hourly; !- [J]
Output:Meter,InteriorEquipment:Electricity:Zone:THERMAL ZONE: UNIT_0509_2B,hourly; !- [J]
Output:Meter:Cumulative,InteriorEquipment:Electricity:Zone:THERMAL ZONE: UNIT_0509_2B,hourly; !- [J]
Output:Meter,InteriorEquipment:Electricity:Zone:THERMAL ZONE: UNIT_2109_2B,hourly; !- [J]
Output:Meter:Cumulative,InteriorEquipment:Electricity:Zone:THERMAL ZONE: UNIT_2109_2B,hourly; !- [J]
Output:Meter,InteriorEquipment:Electricity:Zone:THERMAL ZONE: UNIT_0209_3B,hourly; !- [J]
Output:Meter:Cumulative,InteriorEquipment:Electricity:Zone:THERMAL ZONE: UNIT_0209_3B,hourly; !- [J]
Output:Meter,InteriorEquipment:Electricity:Zone:THERMAL ZONE: UNIT_0307_3B,hourly; !- [J]
Output:Meter:Cumulative,InteriorEquipment:Electricity:Zone:THERMAL ZONE: UNIT_0307_3B,hourly; !- [J]
Output:Meter,InteriorEquipment:Electricity:Zone:THERMAL ZONE: UNIT_0407_3B,hourly; !- [J]
Output:Meter:Cumulative,InteriorEquipment:Electricity:Zone:THERMAL ZONE: UNIT_0407_3B,hourly; !- [J]
Output:Meter,InteriorEquipment:Electricity:Zone:THERMAL ZONE: UNIT_0507_3B,hourly; !- [J]
Output:Meter:Cumulative,InteriorEquipment:Electricity:Zone:THERMAL ZONE: UNIT_0507_3B,hourly; !- [J]
Output:Meter,InteriorEquipment:Electricity:Zone:THERMAL ZONE: UNIT_2107_3B,hourly; !- [J]
Output:Meter:Cumulative,InteriorEquipment:Electricity:Zone:THERMAL ZONE: UNIT_2107_3B,hourly; !- [J]
Output:Meter,InteriorEquipment:Electricity:Zone:THERMAL ZONE: UNIT_0201_4B,hourly; !- [J]
Output:Meter:Cumulative,InteriorEquipment:Electricity:Zone:THERMAL ZONE: UNIT_0201_4B,hourly; !- [J]
Output:Meter,InteriorEquipment:Electricity:Zone:THERMAL ZONE: UNIT_0219_4B,hourly; !- [J]
Output:Meter:Cumulative,InteriorEquipment:Electricity:Zone:THERMAL ZONE: UNIT_0219_4B,hourly; !- [J]
Output:Meter,InteriorEquipment:Electricity:Zone:THERMAL ZONE: UNIT_0301_4B,hourly; !- [J]
Output:Meter:Cumulative,InteriorEquipment:Electricity:Zone:THERMAL ZONE: UNIT_0301_4B,hourly; !- [J]
Output:Meter,InteriorEquipment:Electricity:Zone:THERMAL ZONE: UNIT_0317_4B,hourly; !- [J]
Output:Meter:Cumulative,InteriorEquipment:Electricity:Zone:THERMAL ZONE: UNIT_0317_4B,hourly; !- [J]
Output:Meter,InteriorEquipment:Electricity:Zone:THERMAL ZONE: UNIT_0401_4B,hourly; !- [J]
Output:Meter:Cumulative,InteriorEquipment:Electricity:Zone:THERMAL ZONE: UNIT_0401_4B,hourly; !- [J]
Output:Meter,InteriorEquipment:Electricity:Zone:THERMAL ZONE: UNIT_0417_4B,hourly; !- [J]
Output:Meter:Cumulative,InteriorEquipment:Electricity:Zone:THERMAL ZONE: UNIT_0417_4B,hourly; !- [J]
Output:Meter,InteriorEquipment:Electricity:Zone:THERMAL ZONE: UNIT_0501_4B,hourly; !- [J]
Output:Meter:Cumulative,InteriorEquipment:Electricity:Zone:THERMAL ZONE: UNIT_0501_4B,hourly; !- [J]
Output:Meter,InteriorEquipment:Electricity:Zone:THERMAL ZONE: UNIT_0517_4B,hourly; !- [J]
Output:Meter:Cumulative,InteriorEquipment:Electricity:Zone:THERMAL ZONE: UNIT_0517_4B,hourly; !- [J]
Output:Meter,InteriorEquipment:Electricity:Zone:THERMAL ZONE: UNIT_2101_4B,hourly; !- [J]
Output:Meter:Cumulative,InteriorEquipment:Electricity:Zone:THERMAL ZONE: UNIT_2101_4B,hourly; !- [J]
Output:Meter,InteriorEquipment:Electricity:Zone:THERMAL ZONE: UNIT_2117_4B,hourly; !- [J]
Output:Meter:Cumulative,InteriorEquipment:Electricity:Zone:THERMAL ZONE: UNIT_2117_4B,hourly; !- [J]
Output:Meter,InteriorEquipment:Electricity:Zone:THERMAL ZONE: RESTROOM_0100,hourly; !- [J]
Output:Meter:Cumulative,InteriorEquipment:Electricity:Zone:THERMAL ZONE: RESTROOM_0100,hourly; !- [J]
Output:Meter,InteriorEquipment:Electricity:Zone:THERMAL ZONE: RESTROOM_2201,hourly; !- [J]
Output:Meter:Cumulative,InteriorEquipment:Electricity:Zone:THERMAL ZONE: RESTROOM_2201,hourly; !- [J]
Output:Meter,InteriorEquipment:Electricity:Zone:THERMAL ZONE: RESTROOM_2202,hourly; !- [J]
Output:Meter:Cumulative,InteriorEquipment:Electricity:Zone:THERMAL ZONE: RESTROOM_2202,hourly; !- [J]
Output:Meter,Fans:Electricity,hourly; !- [J]
Output:Meter:Cumulative,Fans:Electricity,hourly; !- [J]
Output:Meter,Fans:Electricity:Zone:THERMAL ZONE: BOH_0100,hourly; !- [J]
Output:Meter:Cumulative,Fans:Electricity:Zone:THERMAL ZONE: BOH_0100,hourly; !- [J]
Output:Meter,Ventilation (simple):Fans:Electricity,hourly; !- [J]
Output:Meter:Cumulative,Ventilation (simple):Fans:Electricity,hourly; !- [J]
Output:Meter,Fans:Electricity:Zone:THERMAL ZONE: ELEC_0300,hourly; !- [J]
Output:Meter:Cumulative,Fans:Electricity:Zone:THERMAL ZONE: ELEC_0300,hourly; !- [J]
Output:Meter,Fans:Electricity:Zone:THERMAL ZONE: ELEC_0400,hourly; !- [J]
Output:Meter:Cumulative,Fans:Electricity:Zone:THERMAL ZONE: ELEC_0400,hourly; !- [J]
Output:Meter,Fans:Electricity:Zone:THERMAL ZONE: ELEV LOBBY_2300,hourly; !- [J]
Output:Meter:Cumulative,Fans:Electricity:Zone:THERMAL ZONE: ELEV LOBBY_2300,hourly; !- [J]
Output:Meter,Fans:Electricity:Zone:THERMAL ZONE: ELEV LOBBY_P101,hourly; !- [J]
Output:Meter:Cumulative,Fans:Electricity:Zone:THERMAL ZONE: ELEV LOBBY_P101,hourly; !- [J]
Output:Meter,Fans:Electricity:Zone:THERMAL ZONE: ELEV LOBBY_P200,hourly; !- [J]
Output:Meter:Cumulative,Fans:Electricity:Zone:THERMAL ZONE: ELEV LOBBY_P200,hourly; !- [J]
Output:Meter,Electricity:Zone:THERMAL ZONE: ELEV_0101,hourly; !- [J]
Output:Meter:Cumulative,Electricity:Zone:THERMAL ZONE: ELEV_0101,hourly; !- [J]
Output:Meter,Fans:Electricity:Zone:THERMAL ZONE: ELEV_0101,hourly; !- [J]
Output:Meter:Cumulative,Fans:Electricity:Zone:THERMAL ZONE: ELEV_0101,hourly; !- [J]
Output:Meter,Electricity:Zone:THERMAL ZONE: ELEV_0102,hourly; !- [J]
Output:Meter:Cumulative,Electricity:Zone:THERMAL ZONE: ELEV_0102,hourly; !- [J]
Output:Meter,Fans:Electricity:Zone:THERMAL ZONE: ELEV_0102,hourly; !- [J]
Output:Meter:Cumulative,Fans:Electricity:Zone:THERMAL ZONE: ELEV_0102,hourly; !- [J]
Output:Meter,Electricity:Zone:THERMAL ZONE: ELEV_0201,hourly; !- [J]
Output:Meter:Cumulative,Electricity:Zone:THERMAL ZONE: ELEV_0201,hourly; !- [J]
Output:Meter,Fans:Electricity:Zone:THERMAL ZONE: ELEV_0201,hourly; !- [J]
Output:Meter:Cumulative,Fans:Electricity:Zone:THERMAL ZONE: ELEV_0201,hourly; !- [J]
Output:Meter,Electricity:Zone:THERMAL ZONE: ELEV_0202,hourly; !- [J]
Output:Meter:Cumulative,Electricity:Zone:THERMAL ZONE: ELEV_0202,hourly; !- [J]
Output:Meter,Fans:Electricity:Zone:THERMAL ZONE: ELEV_0202,hourly; !- [J]
Output:Meter:Cumulative,Fans:Electricity:Zone:THERMAL ZONE: ELEV_0202,hourly; !- [J]
Output:Meter,Electricity:Zone:THERMAL ZONE: ELEV_0301,hourly; !- [J]
Output:Meter:Cumulative,Electricity:Zone:THERMAL ZONE: ELEV_0301,hourly; !- [J]
Output:Meter,Fans:Electricity:Zone:THERMAL ZONE: ELEV_0301,hourly; !- [J]
Output:Meter:Cumulative,Fans:Electricity:Zone:THERMAL ZONE: ELEV_0301,hourly; !- [J]
Output:Meter,Electricity:Zone:THERMAL ZONE: ELEV_0302,hourly; !- [J]
Output:Meter:Cumulative,Electricity:Zone:THERMAL ZONE: ELEV_0302,hourly; !- [J]
Output:Meter,Fans:Electricity:Zone:THERMAL ZONE: ELEV_0302,hourly; !- [J]
Output:Meter:Cumulative,Fans:Electricity:Zone:THERMAL ZONE: ELEV_0302,hourly; !- [J]
Output:Meter,Electricity:Zone:THERMAL ZONE: ELEV_0401,hourly; !- [J]
Output:Meter:Cumulative,Electricity:Zone:THERMAL ZONE: ELEV_0401,hourly; !- [J]
Output:Meter,Fans:Electricity:Zone:THERMAL ZONE: ELEV_0401,hourly; !- [J]
Output:Meter:Cumulative,Fans:Electricity:Zone:THERMAL ZONE: ELEV_0401,hourly; !- [J]
Output:Meter,Electricity:Zone:THERMAL ZONE: ELEV_0402,hourly; !- [J]
Output:Meter:Cumulative,Electricity:Zone:THERMAL ZONE: ELEV_0402,hourly; !- [J]
Output:Meter,Fans:Electricity:Zone:THERMAL ZONE: ELEV_0402,hourly; !- [J]
Output:Meter:Cumulative,Fans:Electricity:Zone:THERMAL ZONE: ELEV_0402,hourly; !- [J]
Output:Meter,Electricity:Zone:THERMAL ZONE: ELEV_0501,hourly; !- [J]
Output:Meter:Cumulative,Electricity:Zone:THERMAL ZONE: ELEV_0501,hourly; !- [J]
Output:Meter,Fans:Electricity:Zone:THERMAL ZONE: ELEV_0501,hourly; !- [J]
Output:Meter:Cumulative,Fans:Electricity:Zone:THERMAL ZONE: ELEV_0501,hourly; !- [J]
Output:Meter,Electricity:Zone:THERMAL ZONE: ELEV_0502,hourly; !- [J]
Output:Meter:Cumulative,Electricity:Zone:THERMAL ZONE: ELEV_0502,hourly; !- [J]
Output:Meter,Fans:Electricity:Zone:THERMAL ZONE: ELEV_0502,hourly; !- [J]
Output:Meter:Cumulative,Fans:Electricity:Zone:THERMAL ZONE: ELEV_0502,hourly; !- [J]
Output:Meter,Electricity:Zone:THERMAL ZONE: ELEV_2101,hourly; !- [J]
Output:Meter:Cumulative,Electricity:Zone:THERMAL ZONE: ELEV_2101,hourly; !- [J]
Output:Meter,Fans:Electricity:Zone:THERMAL ZONE: ELEV_2101,hourly; !- [J]
Output:Meter:Cumulative,Fans:Electricity:Zone:THERMAL ZONE: ELEV_2101,hourly; !- [J]
Output:Meter,Electricity:Zone:THERMAL ZONE: ELEV_2102,hourly; !- [J]
Output:Meter:Cumulative,Electricity:Zone:THERMAL ZONE: ELEV_2102,hourly; !- [J]
[...]
Output:Meter:Cumulative,EnergyTransfer:Zone:THERMAL ZONE: UNIT_0511,hourly; !- [J]
Output:Meter,Heating:EnergyTransfer:Zone:THERMAL ZONE: UNIT_0511,hourly; !- [J]
Output:Meter:Cumulative,Heating:EnergyTransfer:Zone:THERMAL ZONE: UNIT_0511,hourly; !- [J]
Output:Meter,Cooling:EnergyTransfer:Zone:THERMAL ZONE: UNIT_0511,hourly; !- [J]
Output:Meter:Cumulative,Cooling:EnergyTransfer:Zone:THERMAL ZONE: UNIT_0511,hourly; !- [J]
Output:Meter,EnergyTransfer:Zone:THERMAL ZONE: UNIT_0512,hourly; !- [J]
Output:Meter:Cumulative,EnergyTransfer:Zone:THERMAL ZONE: UNIT_0512,hourly; !- [J]
Output:Meter,Heating:EnergyTransfer:Zone:THERMAL ZONE: UNIT_0512,hourly; !- [J]
Output:Meter:Cumulative,Heating:EnergyTransfer:Zone:THERMAL ZONE: UNIT_0512,hourly; !- [J]
Output:Meter,Cooling:EnergyTransfer:Zone:THERMAL ZONE: UNIT_0512,hourly; !- [J]
Output:Meter:Cumulative,Cooling:EnergyTransfer:Zone:THERMAL ZONE: UNIT_0512,hourly; !- [J]
Output:Meter,EnergyTransfer:Zone:THERMAL ZONE: UNIT_0513,hourly; !- [J]
Output:Meter:Cumulative,EnergyTransfer:Zone:THERMAL ZONE: UNIT_0513,hourly; !- [J]
Output:Meter,Heating:EnergyTransfer:Zone:THERMAL ZONE: UNIT_0513,hourly; !- [J]
Output:Meter:Cumulative,Heating:EnergyTransfer:Zone:THERMAL ZONE: UNIT_0513,hourly; !- [J]
Output:Meter,Cooling:EnergyTransfer:Zone:THERMAL ZONE: UNIT_0513,hourly; !- [J]
Output:Meter:Cumulative,Cooling:EnergyTransfer:Zone:THERMAL ZONE: UNIT_0513,hourly; !- [J]
Output:Meter,EnergyTransfer:Zone:THERMAL ZONE: UNIT_0514,hourly; !- [J]
Output:Meter:Cumulative,EnergyTransfer:Zone:THERMAL ZONE: UNIT_0514,hourly; !- [J]
Output:Meter,Heating:EnergyTransfer:Zone:THERMAL ZONE: UNIT_0514,hourly; !- [J]
Output:Meter:Cumulative,Heating:EnergyTransfer:Zone:THERMAL ZONE: UNIT_0514,hourly; !- [J]
Output:Meter,Cooling:EnergyTransfer:Zone:THERMAL ZONE: UNIT_0514,hourly; !- [J]
Output:Meter:Cumulative,Cooling:EnergyTransfer:Zone:THERMAL ZONE: UNIT_0514,hourly; !- [J]
Output:Meter,EnergyTransfer:Zone:THERMAL ZONE: UNIT_0515,hourly; !- [J]
Output:Meter:Cumulative,EnergyTransfer:Zone:THERMAL ZONE: UNIT_0515,hourly; !- [J]
Output:Meter,Heating:EnergyTransfer:Zone:THERMAL ZONE: UNIT_0515,hourly; !- [J]
Output:Meter:Cumulative,Heating:EnergyTransfer:Zone:THERMAL ZONE: UNIT_0515,hourly; !- [J]
Output:Meter,Cooling:EnergyTransfer:Zone:THERMAL ZONE: UNIT_0515,hourly; !- [J]
Output:Meter:Cumulative,Cooling:EnergyTransfer:Zone:THERMAL ZONE: UNIT_0515,hourly; !- [J]
Output:Meter,EnergyTransfer:Zone:THERMAL ZONE: UNIT_0516,hourly; !- [J]
Output:Meter:Cumulative,EnergyTransfer:Zone:THERMAL ZONE: UNIT_0516,hourly; !- [J]
Output:Meter,Heating:EnergyTransfer:Zone:THERMAL ZONE: UNIT_0516,hourly; !- [J]
Output:Meter:Cumulative,Heating:EnergyTransfer:Zone:THERMAL ZONE: UNIT_0516,hourly; !- [J]
Output:Meter,Cooling:EnergyTransfer:Zone:THERMAL ZONE: UNIT_0516,hourly; !- [J]
Output:Meter:Cumulative,Cooling:EnergyTransfer:Zone:THERMAL ZONE: UNIT_0516,hourly; !- [J]
Output:Meter,EnergyTransfer:Zone:THERMAL ZONE: UNIT_0517_4B,hourly; !- [J]
Output:Meter:Cumulative,EnergyTransfer:Zone:THERMAL ZONE: UNIT_0517_4B,hourly; !- [J]
Output:Meter,Heating:EnergyTransfer:Zone:THERMAL ZONE: UNIT_0517_4B,hourly; !- [J]
Output:Meter:Cumulative,Heating:EnergyTransfer:Zone:THERMAL ZONE: UNIT_0517_4B,hourly; !- [J]
Output:Meter,Cooling:EnergyTransfer:Zone:THERMAL ZONE: UNIT_0517_4B,hourly; !- [J]
Output:Meter:Cumulative,Cooling:EnergyTransfer:Zone:THERMAL ZONE: UNIT_0517_4B,hourly; !- [J]
Output:Meter,EnergyTransfer:Zone:THERMAL ZONE: UNIT_2101_4B,hourly; !- [J]
Output:Meter:Cumulative,EnergyTransfer:Zone:THERMAL ZONE: UNIT_2101_4B,hourly; !- [J]
Output:Meter,Heating:EnergyTransfer:Zone:THERMAL ZONE: UNIT_2101_4B,hourly; !- [J]
Output:Meter:Cumulative,Heating:EnergyTransfer:Zone:THERMAL ZONE: UNIT_2101_4B,hourly; !- [J]
Output:Meter,Cooling:EnergyTransfer:Zone:THERMAL ZONE: UNIT_2101_4B,hourly; !- [J]
Output:Meter:Cumulative,Cooling:EnergyTransfer:Zone:THERMAL ZONE: UNIT_2101_4B,hourly; !- [J]
Output:Meter,EnergyTransfer:Zone:THERMAL ZONE: UNIT_2102,hourly; !- [J]
Output:Meter:Cumulative,EnergyTransfer:Zone:THERMAL ZONE: UNIT_2102,hourly; !- [J]
Output:Meter,Heating:EnergyTransfer:Zone:THERMAL ZONE: UNIT_2102,hourly; !- [J]
Output:Meter:Cumulative,Heating:EnergyTransfer:Zone:THERMAL ZONE: UNIT_2102,hourly; !- [J]
Output:Meter,Cooling:EnergyTransfer:Zone:THERMAL ZONE: UNIT_2102,hourly; !- [J]
Output:Meter:Cumulative,Cooling:EnergyTransfer:Zone:THERMAL ZONE: UNIT_2102,hourly; !- [J]
Output:Meter,EnergyTransfer:Zone:THERMAL ZONE: UNIT_2103,hourly; !- [J]
Output:Meter:Cumulative,EnergyTransfer:Zone:THERMAL ZONE: UNIT_2103,hourly; !- [J]
Output:Meter,Heating:EnergyTransfer:Zone:THERMAL ZONE: UNIT_2103,hourly; !- [J]
Output:Meter:Cumulative,Heating:EnergyTransfer:Zone:THERMAL ZONE: UNIT_2103,hourly; !- [J]
Output:Meter,Cooling:EnergyTransfer:Zone:THERMAL ZONE: UNIT_2103,hourly; !- [J]
Output:Meter:Cumulative,Cooling:EnergyTransfer:Zone:THERMAL ZONE: UNIT_2103,hourly; !- [J]
Output:Meter,EnergyTransfer:Zone:THERMAL ZONE: UNIT_2104,hourly; !- [J]
Output:Meter:Cumulative,EnergyTransfer:Zone:THERMAL ZONE: UNIT_2104,hourly; !- [J]
Output:Meter,Heating:EnergyTransfer:Zone:THERMAL ZONE: UNIT_2104,hourly; !- [J]
Output:Meter:Cumulative,Heating:EnergyTransfer:Zone:THERMAL ZONE: UNIT_2104,hourly; !- [J]
Output:Meter,Cooling:EnergyTransfer:Zone:THERMAL ZONE: UNIT_2104,hourly; !- [J]
Output:Meter:Cumulative,Cooling:EnergyTransfer:Zone:THERMAL ZONE: UNIT_2104,hourly; !- [J]
Output:Meter,EnergyTransfer:Zone:THERMAL ZONE: UNIT_2105,hourly; !- [J]
Output:Meter:Cumulative,EnergyTransfer:Zone:THERMAL ZONE: UNIT_2105,hourly; !- [J]
Output:Meter,Heating:EnergyTransfer:Zone:THERMAL ZONE: UNIT_2105,hourly; !- [J]
Output:Meter:Cumulative,Heating:EnergyTransfer:Zone:THERMAL ZONE: UNIT_2105,hourly; !- [J]
Output:Meter,Cooling:EnergyTransfer:Zone:THERMAL ZONE: UNIT_2105,hourly; !- [J]
Output:Meter:Cumulative,Cooling:EnergyTransfer:Zone:THERMAL ZONE: UNIT_2105,hourly; !- [J]
Output:Meter,EnergyTransfer:Zone:THERMAL ZONE: UNIT_2106,hourly; !- [J]
Output:Meter:Cumulative,EnergyTransfer:Zone:THERMAL ZONE: UNIT_2106,hourly; !- [J]
Output:Meter,Heating:EnergyTransfer:Zone:THERMAL ZONE: UNIT_2106,hourly; !- [J]
Output:Meter:Cumulative,Heating:EnergyTransfer:Zone:THERMAL ZONE: UNIT_2106,hourly; !- [J]
Output:Meter,Cooling:EnergyTransfer:Zone:THERMAL ZONE: UNIT_2106,hourly; !- [J]
Output:Meter:Cumulative,Cooling:EnergyTransfer:Zone:THERMAL ZONE: UNIT_2106,hourly; !- [J]
Output:Meter,EnergyTransfer:Zone:THERMAL ZONE: UNIT_2107_3B,hourly; !- [J]
Output:Meter:Cumulative,EnergyTransfer:Zone:THERMAL ZONE: UNIT_2107_3B,hourly; !- [J]
Output:Meter,Heating:EnergyTransfer:Zone:THERMAL ZONE: UNIT_2107_3B,hourly; !- [J]
Output:Meter:Cumulative,Heating:EnergyTransfer:Zone:THERMAL ZONE: UNIT_2107_3B,hourly; !- [J]
Output:Meter,Cooling:EnergyTransfer:Zone:THERMAL ZONE: UNIT_2107_3B,hourly; !- [J]
Output:Meter:Cumulative,Cooling:EnergyTransfer:Zone:THERMAL ZONE: UNIT_2107_3B,hourly; !- [J]
Output:Meter,EnergyTransfer:Zone:THERMAL ZONE: UNIT_2108,hourly; !- [J]
Output:Meter:Cumulative,EnergyTransfer:Zone:THERMAL ZONE: UNIT_2108,hourly; !- [J]
Output:Meter,Heating:EnergyTransfer:Zone:THERMAL ZONE: UNIT_2108,hourly; !- [J]
Output:Meter:Cumulative,Heating:EnergyTransfer:Zone:THERMAL ZONE: UNIT_2108,hourly; !- [J]
Output:Meter,Cooling:EnergyTransfer:Zone:THERMAL ZONE: UNIT_2108,hourly; !- [J]
Output:Meter:Cumulative,Cooling:EnergyTransfer:Zone:THERMAL ZONE: UNIT_2108,hourly; !- [J]
Output:Meter,EnergyTransfer:Zone:THERMAL ZONE: UNIT_2109_2B,hourly; !- [J]
Output:Meter:Cumulative,EnergyTransfer:Zone:THERMAL ZONE: UNIT_2109_2B,hourly; !- [J]
Output:Meter,Heating:EnergyTransfer:Zone:THERMAL ZONE: UNIT_2109_2B,hourly; !- [J]
Output:Meter:Cumulative,Heating:EnergyTransfer:Zone:THERMAL ZONE: UNIT_2109_2B,hourly; !- [J]
Output:Meter,Cooling:EnergyTransfer:Zone:THERMAL ZONE: UNIT_2109_2B,hourly; !- [J]
Output:Meter:Cumulative,Cooling:EnergyTransfer:Zone:THERMAL ZONE: UNIT_2109_2B,hourly; !- [J]
Output:Meter,EnergyTransfer:Zone:THERMAL ZONE: UNIT_2110,hourly; !- [J]
Output:Meter:Cumulative,EnergyTransfer:Zone:THERMAL ZONE: UNIT_2110,hourly; !- [J]
Output:Meter,Heating:EnergyTransfer:Zone:THERMAL ZONE: UNIT_2110,hourly; !- [J]
Output:Meter:Cumulative,Heating:EnergyTransfer:Zone:THERMAL ZONE: UNIT_2110,hourly; !- [J]
Output:Meter,Cooling:EnergyTransfer:Zone:THERMAL ZONE: UNIT_2110,hourly; !- [J]
Output:Meter:Cumulative,Cooling:EnergyTransfer:Zone:THERMAL ZONE: UNIT_2110,hourly; !- [J]
Output:Meter,EnergyTransfer:Zone:THERMAL ZONE: UNIT_2111,hourly; !- [J]
Output:Meter:Cumulative,EnergyTransfer:Zone:THERMAL ZONE: UNIT_2111,hourly; !- [J]
Output:Meter,Heating:EnergyTransfer:Zone:THERMAL ZONE: UNIT_2111,hourly; !- [J]
Output:Meter:Cumulative,Heating:EnergyTransfer:Zone:THERMAL ZONE: UNIT_2111,hourly; !- [J]
Output:Meter,Cooling:EnergyTransfer:Zone:THERMAL ZONE: UNIT_2111,hourly; !- [J]
Output:Meter:Cumulative,Cooling:EnergyTransfer:Zone:THERMAL ZONE: UNIT_2111,hourly; !- [J]
Output:Meter,EnergyTransfer:Zone:THERMAL ZONE: UNIT_2112,hourly; !- [J]
Output:Meter:Cumulative,EnergyTransfer:Zone:THERMAL ZONE: UNIT_2112,hourly; !- [J]
Output:Meter,Heating:EnergyTransfer:Zone:THERMAL ZONE: UNIT_2112,hourly; !- [J]
Output:Meter:Cumulative,Heating:EnergyTransfer:Zone:THERMAL ZONE: UNIT_2112,hourly; !- [J]
Output:Meter,Cooling:EnergyTransfer:Zone:THERMAL ZONE: UNIT_2112,hourly; !- [J]
Output:Meter:Cumulative,Cooling:EnergyTransfer:Zone:THERMAL ZONE: UNIT_2112,hourly; !- [J]
Output:Meter,EnergyTransfer:Zone:THERMAL ZONE: UNIT_2113,hourly; !- [J]
Output:Meter:Cumulative,EnergyTransfer:Zone:THERMAL ZONE: UNIT_2113,hourly; !- [J]
Output:Meter,Heating:EnergyTransfer:Zone:THERMAL ZONE: UNIT_2113,hourly; !- [J]
Output:Meter:Cumulative,Heating:EnergyTransfer:Zone:THERMAL ZONE: UNIT_2113,hourly; !- [J]
Output:Meter,Cooling:EnergyTransfer:Zone:THERMAL ZONE: UNIT_2113,hourly; !- [J]
Output:Meter:Cumulative,Cooling:EnergyTransfer:Zone:THERMAL ZONE: UNIT_2113,hourly; !- [J]
Output:Meter,EnergyTransfer:Zone:THERMAL ZONE: UNIT_2114,hourly; !- [J]
Output:Meter:Cumulative,EnergyTransfer:Zone:THERMAL ZONE: UNIT_2114,hourly; !- [J]
Output:Meter,Heating:EnergyTransfer:Zone:THERMAL ZONE: UNIT_2114,hourly; !- [J]
Output:Meter:Cumulative,Heating:EnergyTransfer:Zone:THERMAL ZONE: UNIT_2114,hourly; !- [J]
Output:Meter,Cooling:EnergyTransfer:Zone:THERMAL ZONE: UNIT_2114,hourly; !- [J]
Output:Meter:Cumulative,Cooling:EnergyTransfer:Zone:THERMAL ZONE: UNIT_2114,hourly; !- [J]
Output:Meter,EnergyTransfer:Zone:THERMAL ZONE: UNIT_2115,hourly; !- [J]
Output:Meter:Cumulative,EnergyTransfer:Zone:THERMAL ZONE: UNIT_2115,hourly; !- [J]
Output:Meter,Heating:EnergyTransfer:Zone:THERMAL ZONE: UNIT_2115,hourly; !- [J]
Output:Meter:Cumulative,Heating:EnergyTransfer:Zone:THERMAL ZONE: UNIT_2115,hourly; !- [J]
Output:Meter,Cooling:EnergyTransfer:Zone:THERMAL ZONE: UNIT_2115,hourly; !- [J]
Output:Meter:Cumulative,Cooling:EnergyTransfer:Zone:THERMAL ZONE: UNIT_2115,hourly; !- [J]
Output:Meter,EnergyTransfer:Zone:THERMAL ZONE: UNIT_2116,hourly; !- [J]
Output:Meter:Cumulative,EnergyTransfer:Zone:THERMAL ZONE: UNIT_2116,hourly; !- [J]
Output:Meter,Heating:EnergyTransfer:Zone:THERMAL ZONE: UNIT_2116,hourly; !- [J]
Output:Meter:Cumulative,Heating:EnergyTransfer:Zone:THERMAL ZONE: UNIT_2116,hourly; !- [J]
Output:Meter,Cooling:EnergyTransfer:Zone:THERMAL ZONE: UNIT_2116,hourly; !- [J]
Output:Meter:Cumulative,Cooling:EnergyTransfer:Zone:THERMAL ZONE: UNIT_2116,hourly; !- [J]
Output:Meter,EnergyTransfer:Zone:THERMAL ZONE: UNIT_2117_4B,hourly; !- [J]
Output:Meter:Cumulative,EnergyTransfer:Zone:THERMAL ZONE: UNIT_2117_4B,hourly; !- [J]
Output:Meter,Heating:EnergyTransfer:Zone:THERMAL ZONE: UNIT_2117_4B,hourly; !- [J]
Output:Meter:Cumulative,Heating:EnergyTransfer:Zone:THERMAL ZONE: UNIT_2117_4B,hourly; !- [J]
Output:Meter,Cooling:EnergyTransfer:Zone:THERMAL ZONE: UNIT_2117_4B,hourly; !- [J]
Output:Meter:Cumulative,Cooling:EnergyTransfer:Zone:THERMAL ZONE: UNIT_2117_4B,hourly; !- [J]
Output:Meter,EnergyTransfer:Zone:THERMAL ZONE: XFMR_0201,hourly; !- [J]
Output:Meter:Cumulative,EnergyTransfer:Zone:THERMAL ZONE: XFMR_0201,hourly; !- [J]
Output:Meter,Heating:EnergyTransfer:Zone:THERMAL ZONE: XFMR_0201,hourly; !- [J]
Output:Meter:Cumulative,Heating:EnergyTransfer:Zone:THERMAL ZONE: XFMR_0201,hourly; !- [J]
Output:Meter,Cooling:EnergyTransfer:Zone:THERMAL ZONE: XFMR_0201,hourly; !- [J]
Output:Meter:Cumulative,Cooling:EnergyTransfer:Zone:THERMAL ZONE: XFMR_0201,hourly; !- [J]
Output:Meter,EnergyTransfer:Zone:THERMAL ZONE: XFMR_0401,hourly; !- [J]
Output:Meter:Cumulative,EnergyTransfer:Zone:THERMAL ZONE: XFMR_0401,hourly; !- [J]
Output:Meter,Heating:EnergyTransfer:Zone:THERMAL ZONE: XFMR_0401,hourly; !- [J]
Output:Meter:Cumulative,Heating:EnergyTransfer:Zone:THERMAL ZONE: XFMR_0401,hourly; !- [J]
Output:Meter,Cooling:EnergyTransfer:Zone:THERMAL ZONE: XFMR_0401,hourly; !- [J]
Output:Meter:Cumulative,Cooling:EnergyTransfer:Zone:THERMAL ZONE: XFMR_0401,hourly; !- [J]
Output:Meter,ElectricityPurchased:Facility,hourly; !- [J]
Output:Meter:Cumulative,ElectricityPurchased:Facility,hourly; !- [J]
Output:Meter,ElectricityPurchased:Plant,hourly; !- [J]
Output:Meter:Cumulative,ElectricityPurchased:Plant,hourly; !- [J]
Output:Meter,Cogeneration:ElectricityPurchased,hourly; !- [J]
Output:Meter:Cumulative,Cogeneration:ElectricityPurchased,hourly; !- [J]
Output:Meter,General:Cogeneration:ElectricityPurchased,hourly; !- [J]
Output:Meter:Cumulative,General:Cogeneration:ElectricityPurchased,hourly; !- [J]
Output:Meter,ElectricitySurplusSold:Facility,hourly; !- [J]
Output:Meter:Cumulative,ElectricitySurplusSold:Facility,hourly; !- [J]
Output:Meter,ElectricitySurplusSold:Plant,hourly; !- [J]
Output:Meter:Cumulative,ElectricitySurplusSold:Plant,hourly; !- [J]
Output:Meter,Cogeneration:ElectricitySurplusSold,hourly; !- [J]
Output:Meter:Cumulative,Cogeneration:ElectricitySurplusSold,hourly; !- [J]
Output:Meter,General:Cogeneration:ElectricitySurplusSold,hourly; !- [J]
Output:Meter:Cumulative,General:Cogeneration:ElectricitySurplusSold,hourly; !- [J]
Output:Meter,ElectricityNet:Facility,hourly; !- [J]
Output:Meter:Cumulative,ElectricityNet:Facility,hourly; !- [J]
Output:Meter,ElectricityNet:Plant,hourly; !- [J]
Output:Meter:Cumulative,ElectricityNet:Plant,hourly; !- [J]
Output:Meter,Cogeneration:ElectricityNet,hourly; !- [J]
Output:Meter:Cumulative,Cogeneration:ElectricityNet,hourly; !- [J]
Output:Meter,General:Cogeneration:ElectricityNet,hourly; !- [J]
Output:Meter:Cumulative,General:Cogeneration:ElectricityNet,hourly; !- [J]
Output:Meter,Electricity:HVAC,hourly; !- [J]
Output:Meter:Cumulative,Electricity:HVAC,hourly; !- [J]
Output:Meter,General:Fans:Electricity,hourly; !- [J]
Output:Meter:Cumulative,General:Fans:Electricity,hourly; !- [J]
Output:Meter,EnergyTransfer:HVAC,hourly; !- [J]
Output:Meter:Cumulative,EnergyTransfer:HVAC,hourly; !- [J]
Output:Meter,CoolingCoils:EnergyTransfer,hourly; !- [J]
Output:Meter:Cumulative,CoolingCoils:EnergyTransfer,hourly; !- [J]
Output:Meter,Cooling:Electricity,hourly; !- [J]
Output:Meter:Cumulative,Cooling:Electricity,hourly; !- [J]
Output:Meter,General:Cooling:Electricity,hourly; !- [J]
Output:Meter:Cumulative,General:Cooling:Electricity,hourly; !- [J]
Output:Meter,HeatingCoils:EnergyTransfer,hourly; !- [J]
Output:Meter:Cumulative,HeatingCoils:EnergyTransfer,hourly; !- [J]
Output:Meter,Heating:Electricity,hourly; !- [J]
Output:Meter:Cumulative,Heating:Electricity,hourly; !- [J]
Output:Meter,General:Heating:Electricity,hourly; !- [J]
Output:Meter:Cumulative,General:Heating:Electricity,hourly; !- [J]
Output:Meter,DistrictHeating:Facility,hourly; !- [J]
Output:Meter:Cumulative,DistrictHeating:Facility,hourly; !- [J]
Output:Meter,DistrictHeating:HVAC,hourly; !- [J]
Output:Meter:Cumulative,DistrictHeating:HVAC,hourly; !- [J]
Output:Meter,Heating:DistrictHeating,hourly; !- [J]
Output:Meter:Cumulative,Heating:DistrictHeating,hourly; !- [J]
Output:Meter,General:Heating:DistrictHeating,hourly; !- [J]
Output:Meter:Cumulative,General:Heating:DistrictHeating,hourly; !- [J]
Output:Meter,DistrictCooling:Facility,hourly; !- [J]
Output:Meter:Cumulative,DistrictCooling:Facility,hourly; !- [J]
Output:Meter,DistrictCooling:HVAC,hourly; !- [J]
Output:Meter:Cumulative,DistrictCooling:HVAC,hourly; !- [J]
Output:Meter,Cooling:DistrictCooling,hourly; !- [J]
Output:Meter:Cumulative,Cooling:DistrictCooling,hourly; !- [J]
Output:Meter,General:Cooling:DistrictCooling,hourly; !- [J]
Output:Meter:Cumulative,General:Cooling:DistrictCooling,hourly; !- [J]
Output:Meter,ExteriorLights:Electricity,hourly; !- [J]
Output:Meter:Cumulative,ExteriorLights:Electricity,hourly; !- [J]
Output:Meter,Site Lighting:ExteriorLights:Electricity,hourly; !- [J]
Output:Meter:Cumulative,Site Lighting:ExteriorLights:Electricity,hourly; !- [J]
Output:Meter,Garage Lighting:ExteriorLights:Electricity,hourly; !- [J]
Output:Meter:Cumulative,Garage Lighting:ExteriorLights:Electricity,hourly; !- [J]
Output:Meter,Electricity:Plant,hourly; !- [J]
Output:Meter:Cumulative,Electricity:Plant,hourly; !- [J]
Output:Meter,Pumps:Electricity,hourly; !- [J]
Output:Meter:Cumulative,Pumps:Electricity,hourly; !- [J]
Output:Meter,General:Pumps:Electricity,hourly; !- [J]
Output:Meter:Cumulative,General:Pumps:Electricity,hourly; !- [J]
Output:Meter,Water:Facility,hourly; !- [m3]
Output:Meter:Cumulative,Water:Facility,hourly; !- [m3]
Output:Meter,Water:Plant,hourly; !- [m3]
Output:Meter:Cumulative,Water:Plant,hourly; !- [m3]
Output:Meter,WaterSystems:Water,hourly; !- [m3]
Output:Meter:Cumulative,WaterSystems:Water,hourly; !- [m3]
Output:Meter,General:WaterSystems:Water,hourly; !- [m3]
Output:Meter:Cumulative,General:WaterSystems:Water,hourly; !- [m3]
Output:Meter,MainsWater:Facility,hourly; !- [m3]
Output:Meter:Cumulative,MainsWater:Facility,hourly; !- [m3]
Output:Meter,MainsWater:Plant,hourly; !- [m3]
Output:Meter:Cumulative,MainsWater:Plant,hourly; !- [m3]
Output:Meter,WaterSystems:MainsWater,hourly; !- [m3]
Output:Meter:Cumulative,WaterSystems:MainsWater,hourly; !- [m3]
Output:Meter,General:WaterSystems:MainsWater,hourly; !- [m3]
Output:Meter:Cumulative,General:WaterSystems:MainsWater,hourly; !- [m3]
Output:Meter,EnergyTransfer:Plant,hourly; !- [J]
Output:Meter:Cumulative,EnergyTransfer:Plant,hourly; !- [J]
Output:Meter,WaterSystems:EnergyTransfer,hourly; !- [J]
Output:Meter:Cumulative,WaterSystems:EnergyTransfer,hourly; !- [J]
Output:Meter,General:WaterSystems:EnergyTransfer,hourly; !- [J]
Output:Meter:Cumulative,General:WaterSystems:EnergyTransfer,hourly; !- [J]
Output:Meter,PlantLoopHeatingDemand:Facility,hourly; !- [J]
Output:Meter:Cumulative,PlantLoopHeatingDemand:Facility,hourly; !- [J]
Output:Meter,PlantLoopHeatingDemand:Plant,hourly; !- [J]
Output:Meter:Cumulative,PlantLoopHeatingDemand:Plant,hourly; !- [J]
Output:Meter,WaterSystems:PlantLoopHeatingDemand,hourly; !- [J]
Output:Meter:Cumulative,WaterSystems:PlantLoopHeatingDemand,hourly; !- [J]
Output:Meter,General:WaterSystems:PlantLoopHeatingDemand,hourly; !- [J]
Output:Meter:Cumulative,General:WaterSystems:PlantLoopHeatingDemand,hourly; !- [J]
Output:Meter,WaterSystems:Electricity,hourly; !- [J]
Output:Meter:Cumulative,WaterSystems:Electricity,hourly; !- [J]
Output:Meter,General:WaterSystems:Electricity,hourly; !- [J]
Output:Meter:Cumulative,General:WaterSystems:Electricity,hourly; !- [J]
Output:Meter,Gas:Facility,hourly; !- [J]
Output:Meter:Cumulative,Gas:Facility,hourly; !- [J]
Output:Meter,Gas:Plant,hourly; !- [J]
Output:Meter:Cumulative,Gas:Plant,hourly; !- [J]
Output:Meter,WaterSystems:Gas,hourly; !- [J]
Output:Meter:Cumulative,WaterSystems:Gas,hourly; !- [J]
Output:Meter,General:WaterSystems:Gas,hourly; !- [J]
Output:Meter:Cumulative,General:WaterSystems:Gas,hourly; !- [J]
Output:Meter,Carbon Equivalent:Facility,hourly; !- [kg]
Output:Meter:Cumulative,Carbon Equivalent:Facility,hourly; !- [kg]
Output:Meter,CarbonEquivalentEmissions:Carbon Equivalent,hourly; !- [kg]
Output:Meter:Cumulative,CarbonEquivalentEmissions:Carbon Equivalent,hourly; !- [kg]
