Program Version,EnergyPlus, Version 9.3.0-baff08990c, YMD=2020.05.22 11:48
! This file shows details about the branches, nodes, and other
! elements of the flow connections.
! This file is intended for use in "debugging" potential problems
! that may also be detected by the program, but may be more easily
! identified by "eye".
! This file is also intended to support software which draws a
! schematic diagram of the HVAC system.
! ===============================================================
! #Nodes,<Number of Unique Nodes>
 #Nodes,1227
! <Node>,<NodeNumber>,<Node Name>,<Node Fluid Type>,<# Times Node Referenced After Definition>
 Node,1,NODE 219,Air,3
 Node,2,NODE 218,Air,3
 Node,3,NODE 221,Air,3
 Node,4,NODE 220,Air,3
 Node,5,NODE 223,Air,3
 Node,6,NODE 222,Air,3
 Node,7,NODE 225,Air,3
 Node,8,NODE 224,Air,3
 Node,9,NODE 227,Air,3
 Node,10,NODE 226,Air,3
 Node,11,NODE 229,Air,3
 Node,12,NODE 228,Air,3
 Node,13,NODE 231,Air,3
 Node,14,NODE 230,Air,3
 Node,15,NODE 233,Air,3
 Node,16,NODE 232,Air,3
 Node,17,NODE 235,Air,3
 Node,18,NODE 234,Air,3
 Node,19,NODE 237,Air,3
 Node,20,NODE 236,Air,3
 Node,21,NODE 239,Air,3
 Node,22,NODE 238,Air,3
 Node,23,NODE 241,Air,3
 Node,24,NODE 240,Air,3
 Node,25,NODE 243,Air,3
 Node,26,NODE 242,Air,3
 Node,27,NODE 245,Air,3
 Node,28,NODE 244,Air,3
 Node,29,NODE 247,Air,3
 Node,30,NODE 246,Air,3
 Node,31,NODE 249,Air,3
 Node,32,NODE 248,Air,3
 Node,33,NODE 251,Air,3
 Node,34,NODE 250,Air,3
 Node,35,NODE 253,Air,3
 Node,36,NODE 252,Air,3
 Node,37,NODE 255,Air,3
 Node,38,NODE 254,Air,3
 Node,39,NODE 257,Air,3
 Node,40,NODE 256,Air,3
 Node,41,NODE 259,Air,3
 Node,42,NODE 258,Air,3
 Node,43,NODE 261,Air,3
 Node,44,NODE 260,Air,3
 Node,45,NODE 263,Air,3
 Node,46,NODE 262,Air,3
 Node,47,NODE 265,Air,3
 Node,48,NODE 264,Air,3
 Node,49,NODE 267,Air,3
 Node,50,NODE 266,Air,3
 Node,51,NODE 269,Air,3
 Node,52,NODE 268,Air,3
 Node,53,NODE 271,Air,3
 Node,54,NODE 270,Air,3
 Node,55,NODE 273,Air,3
 Node,56,NODE 272,Air,3
 Node,57,NODE 275,Air,3
 Node,58,NODE 274,Air,3
 Node,59,NODE 277,Air,3
 Node,60,NODE 276,Air,3
 Node,61,NODE 279,Air,3
 Node,62,NODE 278,Air,3
 Node,63,NODE 281,Air,3
 Node,64,NODE 280,Air,3
 Node,65,NODE 283,Air,3
 Node,66,NODE 282,Air,3
 Node,67,NODE 285,Air,3
 Node,68,NODE 284,Air,3
 Node,69,NODE 287,Air,3
 Node,70,NODE 286,Air,3
 Node,71,NODE 289,Air,3
 Node,72,NODE 288,Air,3
 Node,73,NODE 291,Air,3
 Node,74,NODE 290,Air,3
 Node,75,NODE 293,Air,3
 Node,76,NODE 292,Air,3
 Node,77,NODE 295,Air,3
 Node,78,NODE 294,Air,3
 Node,79,NODE 297,Air,3
 Node,80,NODE 296,Air,3
 Node,81,NODE 299,Air,3
 Node,82,NODE 298,Air,3
 Node,83,NODE 301,Air,3
 Node,84,NODE 300,Air,3
 Node,85,NODE 303,Air,3
 Node,86,NODE 302,Air,3
 Node,87,NODE 305,Air,3
 Node,88,NODE 304,Air,3
 Node,89,NODE 307,Air,3
 Node,90,NODE 306,Air,3
 Node,91,NODE 309,Air,3
 Node,92,NODE 308,Air,3
 Node,93,NODE 311,Air,3
 Node,94,NODE 310,Air,3
 Node,95,NODE 313,Air,3
 Node,96,NODE 312,Air,3
 Node,97,NODE 315,Air,3
 Node,98,NODE 314,Air,3
 Node,99,NODE 317,Air,3
 Node,100,NODE 316,Air,3
 Node,101,NODE 319,Air,3
 Node,102,NODE 318,Air,3
 Node,103,NODE 321,Air,3
 Node,104,NODE 320,Air,3
 Node,105,NODE 323,Air,3
 Node,106,NODE 322,Air,3
 Node,107,NODE 325,Air,3
 Node,108,NODE 324,Air,3
 Node,109,NODE 327,Air,3
 Node,110,NODE 326,Air,3
 Node,111,NODE 329,Air,3
 Node,112,NODE 328,Air,3
 Node,113,NODE 331,Air,3
 Node,114,NODE 330,Air,3
 Node,115,NODE 333,Air,3
 Node,116,NODE 332,Air,3
 Node,117,NODE 335,Air,3
 Node,118,NODE 334,Air,3
 Node,119,NODE 337,Air,3
 Node,120,NODE 336,Air,3
 Node,121,NODE 339,Air,3
 Node,122,NODE 338,Air,3
 Node,123,NODE 341,Air,3
 Node,124,NODE 340,Air,3
 Node,125,NODE 343,Air,3
 Node,126,NODE 342,Air,3
 Node,127,NODE 345,Air,3
 Node,128,NODE 344,Air,3
 Node,129,NODE 347,Air,3
 Node,130,NODE 346,Air,3
 Node,131,NODE 349,Air,3
 Node,132,NODE 348,Air,3
 Node,133,NODE 351,Air,3
 Node,134,NODE 350,Air,3
 Node,135,NODE 353,Air,3
 Node,136,NODE 352,Air,3
 Node,137,NODE 355,Air,3
 Node,138,NODE 354,Air,3
 Node,139,NODE 357,Air,3
 Node,140,NODE 356,Air,3
 Node,141,NODE 359,Air,3
 Node,142,NODE 358,Air,3
 Node,143,NODE 361,Air,3
 Node,144,NODE 360,Air,3
 Node,145,NODE 363,Air,3
 Node,146,NODE 362,Air,3
 Node,147,NODE 365,Air,3
 Node,148,NODE 364,Air,3
 Node,149,NODE 367,Air,3
 Node,150,NODE 366,Air,3
 Node,151,NODE 369,Air,3
 Node,152,NODE 368,Air,3
 Node,153,NODE 371,Air,3
 Node,154,NODE 370,Air,3
 Node,155,NODE 373,Air,3
 Node,156,NODE 372,Air,3
 Node,157,NODE 375,Air,3
 Node,158,NODE 374,Air,3
 Node,159,NODE 377,Air,3
 Node,160,NODE 376,Air,3
 Node,161,NODE 379,Air,3
 Node,162,NODE 378,Air,3
 Node,163,NODE 381,Air,3
 Node,164,NODE 380,Air,3
 Node,165,NODE 383,Air,3
 Node,166,NODE 382,Air,3
 Node,167,NODE 385,Air,3
 Node,168,NODE 384,Air,3
 Node,169,NODE 387,Air,3
 Node,170,NODE 386,Air,3
 Node,171,NODE 389,Air,3
 Node,172,NODE 388,Air,3
 Node,173,NODE 391,Air,3
 Node,174,NODE 390,Air,3
 Node,175,NODE 393,Air,3
 Node,176,NODE 392,Air,3
 Node,177,NODE 395,Air,3
 Node,178,NODE 394,Air,3
 Node,179,NODE 397,Air,3
 Node,180,NODE 396,Air,3
 Node,181,NODE 399,Air,3
 Node,182,NODE 398,Air,3
 Node,183,NODE 401,Air,3
 Node,184,NODE 400,Air,3
 Node,185,NODE 403,Air,3
 Node,186,NODE 402,Air,3
 Node,187,NODE 405,Air,3
 Node,188,NODE 404,Air,3
 Node,189,NODE 407,Air,3
 Node,190,NODE 406,Air,3
 Node,191,NODE 409,Air,3
 Node,192,NODE 408,Air,3
 Node,193,NODE 411,Air,3
 Node,194,NODE 410,Air,3
 Node,195,NODE 413,Air,3
 Node,196,NODE 412,Air,3
 Node,197,NODE 415,Air,3
 Node,198,NODE 414,Air,3
 Node,199,NODE 417,Air,3
 Node,200,NODE 416,Air,3
 Node,201,NODE 419,Air,3
 Node,202,NODE 418,Air,3
 Node,203,NODE 421,Air,3
 Node,204,NODE 420,Air,3
 Node,205,NODE 423,Air,3
 Node,206,NODE 422,Air,3
 Node,207,NODE 425,Air,3
 Node,208,NODE 424,Air,3
 Node,209,NODE 427,Air,3
 Node,210,NODE 426,Air,3
 Node,211,NODE 429,Air,3
 Node,212,NODE 428,Air,3
 Node,213,NODE 431,Air,3
 Node,214,NODE 430,Air,3
 Node,215,NODE 433,Air,3
 Node,216,NODE 432,Air,3
 Node,217,NODE 435,Air,3
 Node,218,NODE 434,Air,3
 Node,219,NODE 437,Air,3
 Node,220,NODE 436,Air,3
 Node,221,NODE 439,Air,3
 Node,222,NODE 438,Air,3
 Node,223,DHW SUPPLY INLET NODE,Water,2
 Node,224,NODE 192,Water,1
 Node,225,NODE 185,Water,1
 Node,226,NODE 187,Water,1
 Node,227,NODE 184,Water,1
 Node,228,DHW SUPPLY OUTLET NODE,Water,4
 Node,229,DHW DEMAND INLET NODE,Water,2
 Node,230,NODE 183,Water,1
 Node,231,NODE 193,Water,1
 Node,232,NODE 194,Water,1
 Node,233,DHW DEMAND BYPASS PIPE INLET NODE,Water,1
 Node,234,DHW DEMAND BYPASS PIPE OUTLET NODE,Water,1
 Node,235,NODE 186,Water,1
 Node,236,DHW DEMAND OUTLET NODE,Water,2
 Node,237,NODE 28,Air,0
 Node,238,NODE 75,Air,0
 Node,239,NODE 201,Air,0
 Node,240,NODE 171,Air,0
 Node,241,NODE 101,Air,0
 Node,242,NODE 76,Air,0
 Node,243,NODE 50,Air,0
 Node,244,NODE 118,Air,0
 Node,245,NODE 14,Air,0
 Node,246,NODE 62,Air,0
 Node,247,NODE 198,Air,0
 Node,248,NODE 160,Air,0
 Node,249,NODE 102,Air,0
 Node,250,NODE 105,Air,0
 Node,251,NODE 33,Air,0
 Node,252,NODE 106,Air,0
 Node,253,NODE 137,Air,0
 Node,254,NODE 91,Air,0
 Node,255,NODE 124,Air,0
 Node,256,NODE 135,Air,0
 Node,257,NODE 100,Air,0
 Node,258,NODE 92,Air,0
 Node,259,NODE 5,Air,0
 Node,260,NODE 126,Air,0
 Node,261,NODE 127,Air,0
 Node,262,NODE 129,Air,0
 Node,263,NODE 130,Air,0
 Node,264,NODE 131,Air,0
 Node,265,NODE 132,Air,0
 Node,266,NODE 128,Air,0
 Node,267,NODE 123,Air,0
 Node,268,NODE 120,Air,0
 Node,269,NODE 117,Air,0
 Node,270,NODE 110,Air,0
 Node,271,NODE 116,Air,0
 Node,272,NODE 115,Air,0
 Node,273,NODE 114,Air,0
 Node,274,NODE 113,Air,0
 Node,275,NODE 112,Air,0
 Node,276,NODE 111,Air,0
 Node,277,NODE 22,Air,0
 Node,278,NODE 42,Air,0
 Node,279,NODE 41,Air,0
 Node,280,NODE 21,Air,0
 Node,281,NODE 38,Air,0
 Node,282,NODE 23,Air,0
 Node,283,NODE 37,Air,0
 Node,284,NODE 34,Air,0
 Node,285,NODE 3,Air,0
 Node,286,NODE 24,Air,0
 Node,287,NODE 27,Air,0
 Node,288,NODE 20,Air,0
 Node,289,NODE 29,Air,0
 Node,290,NODE 31,Air,0
 Node,291,NODE 44,Air,0
 Node,292,NODE 36,Air,0
 Node,293,NODE 45,Air,0
 Node,294,NODE 51,Air,0
 Node,295,NODE 67,Air,0
 Node,296,NODE 19,Air,0
 Node,297,NODE 39,Air,0
 Node,298,NODE 69,Air,0
 Node,299,NODE 35,Air,0
 Node,300,NODE 49,Air,0
 Node,301,NODE 7,Air,0
 Node,302,NODE 32,Air,0
 Node,303,NODE 56,Air,0
 Node,304,NODE 57,Air,0
 Node,305,NODE 60,Air,0
 Node,306,NODE 65,Air,0
 Node,307,NODE 10,Air,0
 Node,308,NODE 55,Air,0
 Node,309,NODE 30,Air,0
 Node,310,NODE 74,Air,0
 Node,311,NODE 63,Air,0
 Node,312,NODE 188,Air,0
 Node,313,NODE 200,Air,0
 Node,314,NODE 215,Air,0
 Node,315,NODE 203,Air,0
 Node,316,NODE 206,Air,0
 Node,317,NODE 199,Air,0
 Node,318,NODE 208,Air,0
 Node,319,NODE 191,Air,0
 Node,320,NODE 210,Air,0
 Node,321,NODE 213,Air,0
 Node,322,NODE 211,Air,0
 Node,323,NODE 217,Air,0
 Node,324,NODE 196,Air,0
 Node,325,NODE 212,Air,0
 Node,326,NODE 216,Air,0
 Node,327,NODE 207,Air,0
 Node,328,NODE 202,Air,0
 Node,329,NODE 168,Air,0
 Node,330,NODE 165,Air,0
 Node,331,NODE 170,Air,0
 Node,332,NODE 145,Air,0
 Node,333,NODE 146,Air,0
 Node,334,NODE 172,Air,0
 Node,335,NODE 150,Air,0
 Node,336,NODE 166,Air,0
 Node,337,NODE 159,Air,0
 Node,338,NODE 158,Air,0
 Node,339,NODE 157,Air,0
 Node,340,NODE 156,Air,0
 Node,341,NODE 155,Air,0
 Node,342,NODE 154,Air,0
 Node,343,NODE 149,Air,0
 Node,344,NODE 153,Air,0
 Node,345,NODE 152,Air,0
 Node,346,NODE 122,Air,0
 Node,347,NODE 189,Air,0
 Node,348,THERMAL ZONE: BOH_0100 ZONE AIR NODE,Air,0
 Node,349,THERMAL ZONE: BOH_0100 IDEAL LOADS SUPPLY INLET,Air,1
 Node,350,THERMAL ZONE: BOH_0100 RETURN OUTLET,Air,0
 Node,351,THERMAL ZONE: ELEC_0300 ZONE AIR NODE,Air,0
 Node,352,THERMAL ZONE: ELEC_0300 IDEAL LOADS SUPPLY INLET,Air,1
 Node,353,THERMAL ZONE: ELEC_0300 RETURN OUTLET,Air,0
 Node,354,THERMAL ZONE: ELEC_0400 ZONE AIR NODE,Air,0
 Node,355,THERMAL ZONE: ELEC_0400 IDEAL LOADS SUPPLY INLET,Air,1
 Node,356,THERMAL ZONE: ELEC_0400 RETURN OUTLET,Air,0
 Node,357,THERMAL ZONE: ELEV LOBBY_2300 ZONE AIR NODE,Air,0
 Node,358,THERMAL ZONE: ELEV LOBBY_2300 IDEAL LOADS SUPPLY INLET,Air,1
 Node,359,THERMAL ZONE: ELEV LOBBY_2300 RETURN OUTLET,Air,0
 Node,360,THERMAL ZONE: ELEV LOBBY_P101 ZONE AIR NODE,Air,0
 Node,361,THERMAL ZONE: ELEV LOBBY_P101 IDEAL LOADS SUPPLY INLET,Air,1
 Node,362,THERMAL ZONE: ELEV LOBBY_P101 RETURN OUTLET,Air,0
 Node,363,THERMAL ZONE: ELEV LOBBY_P200 ZONE AIR NODE,Air,0
 Node,364,THERMAL ZONE: ELEV LOBBY_P200 IDEAL LOADS SUPPLY INLET,Air,1
 Node,365,THERMAL ZONE: ELEV LOBBY_P200 RETURN OUTLET,Air,0
 Node,366,THERMAL ZONE: ELEV_0101 ZONE AIR NODE,Air,0
 Node,367,THERMAL ZONE: ELEV_0101 IDEAL LOADS SUPPLY INLET,Air,1
 Node,368,THERMAL ZONE: ELEV_0101 RETURN OUTLET,Air,0
 Node,369,THERMAL ZONE: ELEV_0102 ZONE AIR NODE,Air,0
 Node,370,THERMAL ZONE: ELEV_0102 IDEAL LOADS SUPPLY INLET,Air,1
 Node,371,THERMAL ZONE: ELEV_0102 RETURN OUTLET,Air,0
 Node,372,THERMAL ZONE: ELEV_0201 ZONE AIR NODE,Air,0
 Node,373,THERMAL ZONE: ELEV_0201 IDEAL LOADS SUPPLY INLET,Air,1
 Node,374,THERMAL ZONE: ELEV_0201 RETURN OUTLET,Air,0
 Node,375,THERMAL ZONE: ELEV_0202 ZONE AIR NODE,Air,0
 Node,376,THERMAL ZONE: ELEV_0202 IDEAL LOADS SUPPLY INLET,Air,1
 Node,377,THERMAL ZONE: ELEV_0202 RETURN OUTLET,Air,0
 Node,378,THERMAL ZONE: ELEV_0301 ZONE AIR NODE,Air,0
 Node,379,THERMAL ZONE: ELEV_0301 IDEAL LOADS SUPPLY INLET,Air,1
 Node,380,THERMAL ZONE: ELEV_0301 RETURN OUTLET,Air,0
 Node,381,THERMAL ZONE: ELEV_0302 ZONE AIR NODE,Air,0
 Node,382,THERMAL ZONE: ELEV_0302 IDEAL LOADS SUPPLY INLET,Air,1
 Node,383,THERMAL ZONE: ELEV_0302 RETURN OUTLET,Air,0
 Node,384,THERMAL ZONE: ELEV_0401 ZONE AIR NODE,Air,0
 Node,385,THERMAL ZONE: ELEV_0401 IDEAL LOADS SUPPLY INLET,Air,1
 Node,386,THERMAL ZONE: ELEV_0401 RETURN OUTLET,Air,0
 Node,387,THERMAL ZONE: ELEV_0402 ZONE AIR NODE,Air,0
 Node,388,THERMAL ZONE: ELEV_0402 IDEAL LOADS SUPPLY INLET,Air,1
 Node,389,THERMAL ZONE: ELEV_0402 RETURN OUTLET,Air,0
 Node,390,THERMAL ZONE: ELEV_0501 ZONE AIR NODE,Air,0
 Node,391,THERMAL ZONE: ELEV_0501 IDEAL LOADS SUPPLY INLET,Air,1
 Node,392,THERMAL ZONE: ELEV_0501 RETURN OUTLET,Air,0
 Node,393,THERMAL ZONE: ELEV_0502 ZONE AIR NODE,Air,0
 Node,394,THERMAL ZONE: ELEV_0502 IDEAL LOADS SUPPLY INLET,Air,1
 Node,395,THERMAL ZONE: ELEV_0502 RETURN OUTLET,Air,0
 Node,396,THERMAL ZONE: ELEV_2101 ZONE AIR NODE,Air,0
 Node,397,THERMAL ZONE: ELEV_2101 IDEAL LOADS SUPPLY INLET,Air,1
 Node,398,THERMAL ZONE: ELEV_2101 RETURN OUTLET,Air,0
 Node,399,THERMAL ZONE: ELEV_2102 ZONE AIR NODE,Air,0
 Node,400,THERMAL ZONE: ELEV_2102 IDEAL LOADS SUPPLY INLET,Air,1
 Node,401,THERMAL ZONE: ELEV_2102 RETURN OUTLET,Air,0
 Node,402,THERMAL ZONE: ELEV_2301 ZONE AIR NODE,Air,0
 Node,403,THERMAL ZONE: ELEV_2301 IDEAL LOADS SUPPLY INLET,Air,1
 Node,404,THERMAL ZONE: ELEV_2301 RETURN OUTLET,Air,0
 Node,405,THERMAL ZONE: ELEV_2302 ZONE AIR NODE,Air,0
 Node,406,THERMAL ZONE: ELEV_2302 IDEAL LOADS SUPPLY INLET,Air,1
 Node,407,THERMAL ZONE: ELEV_2302 RETURN OUTLET,Air,0
 Node,408,THERMAL ZONE: ELEV_2303 ZONE AIR NODE,Air,0
 Node,409,THERMAL ZONE: ELEV_2303 IDEAL LOADS SUPPLY INLET,Air,1
 Node,410,THERMAL ZONE: ELEV_2303 RETURN OUTLET,Air,0
 Node,411,THERMAL ZONE: ELEV_2304 ZONE AIR NODE,Air,0
 Node,412,THERMAL ZONE: ELEV_2304 IDEAL LOADS SUPPLY INLET,Air,1
 Node,413,THERMAL ZONE: ELEV_2304 RETURN OUTLET,Air,0
 Node,414,THERMAL ZONE: ELEV_P101 ZONE AIR NODE,Air,0
 Node,415,THERMAL ZONE: ELEV_P101 IDEAL LOADS SUPPLY INLET,Air,1
 Node,416,THERMAL ZONE: ELEV_P101 RETURN OUTLET,Air,0
 Node,417,THERMAL ZONE: ELEV_P102 ZONE AIR NODE,Air,0
 Node,418,THERMAL ZONE: ELEV_P102 IDEAL LOADS SUPPLY INLET,Air,1
 Node,419,THERMAL ZONE: ELEV_P102 RETURN OUTLET,Air,0
 Node,420,THERMAL ZONE: ELEV_P201 ZONE AIR NODE,Air,0
 Node,421,THERMAL ZONE: ELEV_P201 IDEAL LOADS SUPPLY INLET,Air,1
 Node,422,THERMAL ZONE: ELEV_P201 RETURN OUTLET,Air,0
 Node,423,THERMAL ZONE: ELEV_P202 ZONE AIR NODE,Air,0
 Node,424,THERMAL ZONE: ELEV_P202 IDEAL LOADS SUPPLY INLET,Air,1
 Node,425,THERMAL ZONE: ELEV_P202 RETURN OUTLET,Air,0
 Node,426,THERMAL ZONE: MECH_0200 ZONE AIR NODE,Air,0
 Node,427,THERMAL ZONE: MECH_0200 IDEAL LOADS SUPPLY INLET,Air,1
 Node,428,THERMAL ZONE: MECH_0200 RETURN OUTLET,Air,0
 Node,429,THERMAL ZONE: MECH_0300 ZONE AIR NODE,Air,0
 Node,430,THERMAL ZONE: MECH_0300 IDEAL LOADS SUPPLY INLET,Air,1
 Node,431,THERMAL ZONE: MECH_0300 RETURN OUTLET,Air,0
 Node,432,THERMAL ZONE: MECH_0400 ZONE AIR NODE,Air,0
 Node,433,THERMAL ZONE: MECH_0400 IDEAL LOADS SUPPLY INLET,Air,1
 Node,434,THERMAL ZONE: MECH_0400 RETURN OUTLET,Air,0
 Node,435,THERMAL ZONE: MECH_0500 ZONE AIR NODE,Air,0
 Node,436,THERMAL ZONE: MECH_0500 IDEAL LOADS SUPPLY INLET,Air,1
 Node,437,THERMAL ZONE: MECH_0500 RETURN OUTLET,Air,0
 Node,438,THERMAL ZONE: MECH_2100 ZONE AIR NODE,Air,0
 Node,439,THERMAL ZONE: MECH_2100 IDEAL LOADS SUPPLY INLET,Air,1
 Node,440,THERMAL ZONE: MECH_2100 RETURN OUTLET,Air,0
 Node,441,THERMAL ZONE: PACKAGE_0100 ZONE AIR NODE,Air,0
 Node,442,THERMAL ZONE: PACKAGE_0100 IDEAL LOADS SUPPLY INLET,Air,1
 Node,443,THERMAL ZONE: PACKAGE_0100 RETURN OUTLET,Air,0
 Node,444,THERMAL ZONE: RESTROOM_0100 ZONE AIR NODE,Air,0
 Node,445,THERMAL ZONE: RESTROOM_0100 IDEAL LOADS SUPPLY INLET,Air,1
 Node,446,THERMAL ZONE: RESTROOM_0100 RETURN OUTLET,Air,0
 Node,447,THERMAL ZONE: RESTROOM_2201 ZONE AIR NODE,Air,0
 Node,448,THERMAL ZONE: RESTROOM_2201 IDEAL LOADS SUPPLY INLET,Air,1
 Node,449,THERMAL ZONE: RESTROOM_2201 RETURN OUTLET,Air,0
 Node,450,THERMAL ZONE: RESTROOM_2202 ZONE AIR NODE,Air,0
 Node,451,THERMAL ZONE: RESTROOM_2202 IDEAL LOADS SUPPLY INLET,Air,1
 Node,452,THERMAL ZONE: RESTROOM_2202 RETURN OUTLET,Air,0
 Node,453,THERMAL ZONE: RETAIL STORAGE_0100 ZONE AIR NODE,Air,0
 Node,454,THERMAL ZONE: RETAIL STORAGE_0100 IDEAL LOADS SUPPLY INLET,Air,1
 Node,455,THERMAL ZONE: RETAIL STORAGE_0100 RETURN OUTLET,Air,0
 Node,456,THERMAL ZONE: RETAIL_0100 ZONE AIR NODE,Air,0
 Node,457,THERMAL ZONE: RETAIL_0100 IDEAL LOADS SUPPLY INLET,Air,1
 Node,458,THERMAL ZONE: RETAIL_0100 RETURN OUTLET,Air,0
 Node,459,THERMAL ZONE: STAIR_0101 ZONE AIR NODE,Air,0
 Node,460,THERMAL ZONE: STAIR_0101 IDEAL LOADS SUPPLY INLET,Air,1
 Node,461,THERMAL ZONE: STAIR_0101 RETURN OUTLET,Air,0
 Node,462,THERMAL ZONE: STAIR_0102 ZONE AIR NODE,Air,0
 Node,463,THERMAL ZONE: STAIR_0102 IDEAL LOADS SUPPLY INLET,Air,1
 Node,464,THERMAL ZONE: STAIR_0102 RETURN OUTLET,Air,0
 Node,465,THERMAL ZONE: STAIR_0201 ZONE AIR NODE,Air,0
 Node,466,THERMAL ZONE: STAIR_0201 IDEAL LOADS SUPPLY INLET,Air,1
 Node,467,THERMAL ZONE: STAIR_0201 RETURN OUTLET,Air,0
 Node,468,THERMAL ZONE: STAIR_0202 ZONE AIR NODE,Air,0
 Node,469,THERMAL ZONE: STAIR_0202 IDEAL LOADS SUPPLY INLET,Air,1
 Node,470,THERMAL ZONE: STAIR_0202 RETURN OUTLET,Air,0
 Node,471,THERMAL ZONE: STAIR_0301 ZONE AIR NODE,Air,0
 Node,472,THERMAL ZONE: STAIR_0301 IDEAL LOADS SUPPLY INLET,Air,1
 Node,473,THERMAL ZONE: STAIR_0301 RETURN OUTLET,Air,0
 Node,474,THERMAL ZONE: STAIR_0302 ZONE AIR NODE,Air,0
 Node,475,THERMAL ZONE: STAIR_0302 IDEAL LOADS SUPPLY INLET,Air,1
 Node,476,THERMAL ZONE: STAIR_0302 RETURN OUTLET,Air,0
 Node,477,THERMAL ZONE: STAIR_0401 ZONE AIR NODE,Air,0
 Node,478,THERMAL ZONE: STAIR_0401 IDEAL LOADS SUPPLY INLET,Air,1
 Node,479,THERMAL ZONE: STAIR_0401 RETURN OUTLET,Air,0
 Node,480,THERMAL ZONE: STAIR_0402 ZONE AIR NODE,Air,0
 Node,481,THERMAL ZONE: STAIR_0402 IDEAL LOADS SUPPLY INLET,Air,1
 Node,482,THERMAL ZONE: STAIR_0402 RETURN OUTLET,Air,0
 Node,483,THERMAL ZONE: STAIR_0501 ZONE AIR NODE,Air,0
 Node,484,THERMAL ZONE: STAIR_0501 IDEAL LOADS SUPPLY INLET,Air,1
 Node,485,THERMAL ZONE: STAIR_0501 RETURN OUTLET,Air,0
 Node,486,THERMAL ZONE: STAIR_0502 ZONE AIR NODE,Air,0
 Node,487,THERMAL ZONE: STAIR_0502 IDEAL LOADS SUPPLY INLET,Air,1
 Node,488,THERMAL ZONE: STAIR_0502 RETURN OUTLET,Air,0
 Node,489,THERMAL ZONE: STAIR_2101 ZONE AIR NODE,Air,0
 Node,490,THERMAL ZONE: STAIR_2101 IDEAL LOADS SUPPLY INLET,Air,1
 Node,491,THERMAL ZONE: STAIR_2101 RETURN OUTLET,Air,0
 Node,492,THERMAL ZONE: STAIR_2102 ZONE AIR NODE,Air,0
 Node,493,THERMAL ZONE: STAIR_2102 IDEAL LOADS SUPPLY INLET,Air,1
 Node,494,THERMAL ZONE: STAIR_2102 RETURN OUTLET,Air,0
 Node,495,THERMAL ZONE: STAIR_2201 ZONE AIR NODE,Air,0
 Node,496,THERMAL ZONE: STAIR_2201 IDEAL LOADS SUPPLY INLET,Air,1
 Node,497,THERMAL ZONE: STAIR_2201 RETURN OUTLET,Air,0
 Node,498,THERMAL ZONE: STAIR_2202 ZONE AIR NODE,Air,0
 Node,499,THERMAL ZONE: STAIR_2202 IDEAL LOADS SUPPLY INLET,Air,1
 Node,500,THERMAL ZONE: STAIR_2202 RETURN OUTLET,Air,0
 Node,501,THERMAL ZONE: STAIR_2301 ZONE AIR NODE,Air,0
 Node,502,THERMAL ZONE: STAIR_2301 IDEAL LOADS SUPPLY INLET,Air,1
 Node,503,THERMAL ZONE: STAIR_2301 RETURN OUTLET,Air,0
 Node,504,THERMAL ZONE: STAIR_2302 ZONE AIR NODE,Air,0
 Node,505,THERMAL ZONE: STAIR_2302 IDEAL LOADS SUPPLY INLET,Air,1
 Node,506,THERMAL ZONE: STAIR_2302 RETURN OUTLET,Air,0
 Node,507,THERMAL ZONE: STAIR_P101 ZONE AIR NODE,Air,0
 Node,508,THERMAL ZONE: STAIR_P101 IDEAL LOADS SUPPLY INLET,Air,1
 Node,509,THERMAL ZONE: STAIR_P101 RETURN OUTLET,Air,0
 Node,510,THERMAL ZONE: STAIR_P102 ZONE AIR NODE,Air,0
 Node,511,THERMAL ZONE: STAIR_P102 IDEAL LOADS SUPPLY INLET,Air,1
 Node,512,THERMAL ZONE: STAIR_P102 RETURN OUTLET,Air,0
 Node,513,THERMAL ZONE: STAIR_P201 ZONE AIR NODE,Air,0
 Node,514,THERMAL ZONE: STAIR_P201 IDEAL LOADS SUPPLY INLET,Air,1
 Node,515,THERMAL ZONE: STAIR_P201 RETURN OUTLET,Air,0
 Node,516,THERMAL ZONE: STAIR_P202 ZONE AIR NODE,Air,0
 Node,517,THERMAL ZONE: STAIR_P202 IDEAL LOADS SUPPLY INLET,Air,1
 Node,518,THERMAL ZONE: STAIR_P202 RETURN OUTLET,Air,0
 Node,519,THERMAL ZONE: STOR_0100 ZONE AIR NODE,Air,0
 Node,520,THERMAL ZONE: STOR_0100 IDEAL LOADS SUPPLY INLET,Air,1
 Node,521,THERMAL ZONE: STOR_0100 RETURN OUTLET,Air,0
 Node,522,THERMAL ZONE: STOR_0200 ZONE AIR NODE,Air,0
 Node,523,THERMAL ZONE: STOR_0200 IDEAL LOADS SUPPLY INLET,Air,1
 Node,524,THERMAL ZONE: STOR_0200 RETURN OUTLET,Air,0
 Node,525,THERMAL ZONE: STOR_0300 ZONE AIR NODE,Air,0
 Node,526,THERMAL ZONE: STOR_0300 IDEAL LOADS SUPPLY INLET,Air,1
 Node,527,THERMAL ZONE: STOR_0300 RETURN OUTLET,Air,0
 Node,528,THERMAL ZONE: STOR_0400 ZONE AIR NODE,Air,0
 Node,529,THERMAL ZONE: STOR_0400 IDEAL LOADS SUPPLY INLET,Air,1
 Node,530,THERMAL ZONE: STOR_0400 RETURN OUTLET,Air,0
 Node,531,THERMAL ZONE: STOR_0500 ZONE AIR NODE,Air,0
 Node,532,THERMAL ZONE: STOR_0500 IDEAL LOADS SUPPLY INLET,Air,1
 Node,533,THERMAL ZONE: STOR_0500 RETURN OUTLET,Air,0
 Node,534,THERMAL ZONE: STOR_2100 ZONE AIR NODE,Air,0
 Node,535,THERMAL ZONE: STOR_2100 IDEAL LOADS SUPPLY INLET,Air,1
 Node,536,THERMAL ZONE: STOR_2100 RETURN OUTLET,Air,0
 Node,537,THERMAL ZONE: STOR_P100 ZONE AIR NODE,Air,0
 Node,538,THERMAL ZONE: STOR_P100 IDEAL LOADS SUPPLY INLET,Air,1
 Node,539,THERMAL ZONE: STOR_P100 RETURN OUTLET,Air,0
 Node,540,THERMAL ZONE: STOR_P200 ZONE AIR NODE,Air,0
 Node,541,THERMAL ZONE: STOR_P200 IDEAL LOADS SUPPLY INLET,Air,1
 Node,542,THERMAL ZONE: STOR_P200 RETURN OUTLET,Air,0
 Node,543,THERMAL ZONE: TRASH_0200 ZONE AIR NODE,Air,0
 Node,544,THERMAL ZONE: TRASH_0200 IDEAL LOADS SUPPLY INLET,Air,1
 Node,545,THERMAL ZONE: TRASH_0200 RETURN OUTLET,Air,0
 Node,546,THERMAL ZONE: TRASH_0300 ZONE AIR NODE,Air,0
 Node,547,THERMAL ZONE: TRASH_0300 IDEAL LOADS SUPPLY INLET,Air,1
 Node,548,THERMAL ZONE: TRASH_0300 RETURN OUTLET,Air,0
 Node,549,THERMAL ZONE: TRASH_0400 ZONE AIR NODE,Air,0
 Node,550,THERMAL ZONE: TRASH_0400 IDEAL LOADS SUPPLY INLET,Air,1
 Node,551,THERMAL ZONE: TRASH_0400 RETURN OUTLET,Air,0
 Node,552,THERMAL ZONE: TRASH_0500 ZONE AIR NODE,Air,0
 Node,553,THERMAL ZONE: TRASH_0500 IDEAL LOADS SUPPLY INLET,Air,1
 Node,554,THERMAL ZONE: TRASH_0500 RETURN OUTLET,Air,0
 Node,555,THERMAL ZONE: TRASH_2100 ZONE AIR NODE,Air,0
 Node,556,THERMAL ZONE: TRASH_2100 IDEAL LOADS SUPPLY INLET,Air,1
 Node,557,THERMAL ZONE: TRASH_2100 RETURN OUTLET,Air,0
 Node,558,THERMAL ZONE: TRASH_2200 ZONE AIR NODE,Air,0
 Node,559,THERMAL ZONE: TRASH_2200 IDEAL LOADS SUPPLY INLET,Air,1
 Node,560,THERMAL ZONE: TRASH_2200 RETURN OUTLET,Air,0
 Node,561,THERMAL ZONE: AMEN_0300 PTHP OA NODE,Air,1
 Node,562,THERMAL ZONE: AMEN_0400 PTHP OA NODE,Air,1
 Node,563,THERMAL ZONE: AMEN_0501 PTHP OA NODE,Air,1
 Node,564,THERMAL ZONE: AMEN_2100 PTHP OA NODE,Air,1
 Node,565,THERMAL ZONE: AMEN_2200 PTHP OA NODE,Air,1
 Node,566,THERMAL ZONE: AMEN_2300 PTHP OA NODE,Air,1
 Node,567,THERMAL ZONE: CORR_0100 PTHP OA NODE,Air,1
 Node,568,THERMAL ZONE: CORR_0200 PTHP OA NODE,Air,1
 Node,569,THERMAL ZONE: CORR_0300 PTHP OA NODE,Air,1
 Node,570,THERMAL ZONE: CORR_0400 PTHP OA NODE,Air,1
 Node,571,THERMAL ZONE: CORR_0500 PTHP OA NODE,Air,1
 Node,572,THERMAL ZONE: CORR_2100 PTHP OA NODE,Air,1
 Node,573,THERMAL ZONE: CORR_2300 PTHP OA NODE,Air,1
 Node,574,THERMAL ZONE: CORR_2301 PTHP OA NODE,Air,1
 Node,575,THERMAL ZONE: ELEV CONTROL_2301 PTHP OA NODE,Air,1
 Node,576,THERMAL ZONE: ELEV CONTROL_2302 PTHP OA NODE,Air,1
 Node,577,THERMAL ZONE: FCC_0100 PTHP OA NODE,Air,1
 Node,578,THERMAL ZONE: FITNESS_2200 PTHP OA NODE,Air,1
 Node,579,THERMAL ZONE: LEASING_0100 PTHP OA NODE,Air,1
 Node,580,THERMAL ZONE: LOBBY_MAIL_0100 PTHP OA NODE,Air,1
 Node,581,THERMAL ZONE: LOUNGE_2300 PTHP OA NODE,Air,1
 Node,582,THERMAL ZONE: LOUNGE_2301 PTHP OA NODE,Air,1
 Node,583,THERMAL ZONE: UNIT_0201_4B PTHP OA NODE,Air,1
 Node,584,THERMAL ZONE: UNIT_0202 PTHP OA NODE,Air,1
 Node,585,THERMAL ZONE: UNIT_0203 PTHP OA NODE,Air,1
 Node,586,THERMAL ZONE: UNIT_0204 PTHP OA NODE,Air,1
 Node,587,THERMAL ZONE: UNIT_0205 PTHP OA NODE,Air,1
 Node,588,THERMAL ZONE: UNIT_0206 PTHP OA NODE,Air,1
 Node,589,THERMAL ZONE: UNIT_0207 PTHP OA NODE,Air,1
 Node,590,THERMAL ZONE: UNIT_0208 PTHP OA NODE,Air,1
 Node,591,THERMAL ZONE: UNIT_0209_3B PTHP OA NODE,Air,1
 Node,592,THERMAL ZONE: UNIT_0210 PTHP OA NODE,Air,1
 Node,593,THERMAL ZONE: UNIT_0211_2B PTHP OA NODE,Air,1
 Node,594,THERMAL ZONE: UNIT_0212 PTHP OA NODE,Air,1
 Node,595,THERMAL ZONE: UNIT_0213 PTHP OA NODE,Air,1
 Node,596,THERMAL ZONE: UNIT_0214 PTHP OA NODE,Air,1
 Node,597,THERMAL ZONE: UNIT_0215 PTHP OA NODE,Air,1
 Node,598,THERMAL ZONE: UNIT_0216 PTHP OA NODE,Air,1
 Node,599,THERMAL ZONE: UNIT_0217 PTHP OA NODE,Air,1
 Node,600,THERMAL ZONE: UNIT_0218 PTHP OA NODE,Air,1
 Node,601,THERMAL ZONE: UNIT_0219_4B PTHP OA NODE,Air,1
 Node,602,THERMAL ZONE: UNIT_0301_4B PTHP OA NODE,Air,1
 Node,603,THERMAL ZONE: UNIT_0302 PTHP OA NODE,Air,1
 Node,604,THERMAL ZONE: UNIT_0303 PTHP OA NODE,Air,1
 Node,605,THERMAL ZONE: UNIT_0304 PTHP OA NODE,Air,1
 Node,606,THERMAL ZONE: UNIT_0305 PTHP OA NODE,Air,1
 Node,607,THERMAL ZONE: UNIT_0306 PTHP OA NODE,Air,1
 Node,608,THERMAL ZONE: UNIT_0307_3B PTHP OA NODE,Air,1
 Node,609,THERMAL ZONE: UNIT_0308 PTHP OA NODE,Air,1
 Node,610,THERMAL ZONE: UNIT_0309_2B PTHP OA NODE,Air,1
 Node,611,THERMAL ZONE: UNIT_0310 PTHP OA NODE,Air,1
 Node,612,THERMAL ZONE: UNIT_0311 PTHP OA NODE,Air,1
 Node,613,THERMAL ZONE: UNIT_0312 PTHP OA NODE,Air,1
 Node,614,THERMAL ZONE: UNIT_0313 PTHP OA NODE,Air,1
 Node,615,THERMAL ZONE: UNIT_0314 PTHP OA NODE,Air,1
 Node,616,THERMAL ZONE: UNIT_0315 PTHP OA NODE,Air,1
 Node,617,THERMAL ZONE: UNIT_0316 PTHP OA NODE,Air,1
 Node,618,THERMAL ZONE: UNIT_0317_4B PTHP OA NODE,Air,1
 Node,619,THERMAL ZONE: UNIT_0401_4B PTHP OA NODE,Air,1
 Node,620,THERMAL ZONE: UNIT_0402 PTHP OA NODE,Air,1
 Node,621,THERMAL ZONE: UNIT_0403 PTHP OA NODE,Air,1
 Node,622,THERMAL ZONE: UNIT_0404 PTHP OA NODE,Air,1
 Node,623,THERMAL ZONE: UNIT_0405 PTHP OA NODE,Air,1
 Node,624,THERMAL ZONE: UNIT_0406 PTHP OA NODE,Air,1
 Node,625,THERMAL ZONE: UNIT_0407_3B PTHP OA NODE,Air,1
 Node,626,THERMAL ZONE: UNIT_0408 PTHP OA NODE,Air,1
 Node,627,THERMAL ZONE: UNIT_0409_2B PTHP OA NODE,Air,1
 Node,628,THERMAL ZONE: UNIT_0410 PTHP OA NODE,Air,1
 Node,629,THERMAL ZONE: UNIT_0411 PTHP OA NODE,Air,1
 Node,630,THERMAL ZONE: UNIT_0412 PTHP OA NODE,Air,1
 Node,631,THERMAL ZONE: UNIT_0413 PTHP OA NODE,Air,1
 Node,632,THERMAL ZONE: UNIT_0414 PTHP OA NODE,Air,1
 Node,633,THERMAL ZONE: UNIT_0415 PTHP OA NODE,Air,1
 Node,634,THERMAL ZONE: UNIT_0416 PTHP OA NODE,Air,1
 Node,635,THERMAL ZONE: UNIT_0417_4B PTHP OA NODE,Air,1
 Node,636,THERMAL ZONE: UNIT_0501_4B PTHP OA NODE,Air,1
 Node,637,THERMAL ZONE: UNIT_0502 PTHP OA NODE,Air,1
 Node,638,THERMAL ZONE: UNIT_0503 PTHP OA NODE,Air,1
 Node,639,THERMAL ZONE: UNIT_0504 PTHP OA NODE,Air,1
 Node,640,THERMAL ZONE: UNIT_0505 PTHP OA NODE,Air,1
 Node,641,THERMAL ZONE: UNIT_0506 PTHP OA NODE,Air,1
 Node,642,THERMAL ZONE: UNIT_0507_3B PTHP OA NODE,Air,1
 Node,643,THERMAL ZONE: UNIT_0508 PTHP OA NODE,Air,1
 Node,644,THERMAL ZONE: UNIT_0509_2B PTHP OA NODE,Air,1
 Node,645,THERMAL ZONE: UNIT_0510 PTHP OA NODE,Air,1
 Node,646,THERMAL ZONE: UNIT_0511 PTHP OA NODE,Air,1
 Node,647,THERMAL ZONE: UNIT_0512 PTHP OA NODE,Air,1
 Node,648,THERMAL ZONE: UNIT_0513 PTHP OA NODE,Air,1
 Node,649,THERMAL ZONE: UNIT_0514 PTHP OA NODE,Air,1
 Node,650,THERMAL ZONE: UNIT_0515 PTHP OA NODE,Air,1
 Node,651,THERMAL ZONE: UNIT_0516 PTHP OA NODE,Air,1
 Node,652,THERMAL ZONE: UNIT_0517_4B PTHP OA NODE,Air,1
 Node,653,THERMAL ZONE: UNIT_2101_4B PTHP OA NODE,Air,1
 Node,654,THERMAL ZONE: UNIT_2102 PTHP OA NODE,Air,1
 Node,655,THERMAL ZONE: UNIT_2103 PTHP OA NODE,Air,1
 Node,656,THERMAL ZONE: UNIT_2104 PTHP OA NODE,Air,1
 Node,657,THERMAL ZONE: UNIT_2105 PTHP OA NODE,Air,1
 Node,658,THERMAL ZONE: UNIT_2106 PTHP OA NODE,Air,1
 Node,659,THERMAL ZONE: UNIT_2107_3B PTHP OA NODE,Air,1
 Node,660,THERMAL ZONE: UNIT_2108 PTHP OA NODE,Air,1
 Node,661,THERMAL ZONE: UNIT_2109_2B PTHP OA NODE,Air,1
 Node,662,THERMAL ZONE: UNIT_2110 PTHP OA NODE,Air,1
 Node,663,THERMAL ZONE: UNIT_2111 PTHP OA NODE,Air,1
 Node,664,THERMAL ZONE: UNIT_2112 PTHP OA NODE,Air,1
 Node,665,THERMAL ZONE: UNIT_2113 PTHP OA NODE,Air,1
 Node,666,THERMAL ZONE: UNIT_2114 PTHP OA NODE,Air,1
 Node,667,THERMAL ZONE: UNIT_2115 PTHP OA NODE,Air,1
 Node,668,THERMAL ZONE: UNIT_2116 PTHP OA NODE,Air,1
 Node,669,THERMAL ZONE: UNIT_2117_4B PTHP OA NODE,Air,1
 Node,670,THERMAL ZONE: XFMR_0201 PTHP OA NODE,Air,1
 Node,671,THERMAL ZONE: XFMR_0401 PTHP OA NODE,Air,1
 Node,672,MODEL OUTDOOR AIR NODE,Air,0
 Node,673,THERMAL ZONE: AMEN_0300 PTHP MIXED AIR NODE,Air,1
 Node,674,THERMAL ZONE: AMEN_0300 PTHP RELIEF AIR NODE,Air,0
 Node,675,THERMAL ZONE: AMEN_0400 PTHP MIXED AIR NODE,Air,1
 Node,676,THERMAL ZONE: AMEN_0400 PTHP RELIEF AIR NODE,Air,0
 Node,677,THERMAL ZONE: AMEN_0501 PTHP MIXED AIR NODE,Air,1
 Node,678,THERMAL ZONE: AMEN_0501 PTHP RELIEF AIR NODE,Air,0
 Node,679,THERMAL ZONE: AMEN_2100 PTHP MIXED AIR NODE,Air,1
 Node,680,THERMAL ZONE: AMEN_2100 PTHP RELIEF AIR NODE,Air,0
 Node,681,THERMAL ZONE: AMEN_2200 PTHP MIXED AIR NODE,Air,1
 Node,682,THERMAL ZONE: AMEN_2200 PTHP RELIEF AIR NODE,Air,0
 Node,683,THERMAL ZONE: AMEN_2300 PTHP MIXED AIR NODE,Air,1
 Node,684,THERMAL ZONE: AMEN_2300 PTHP RELIEF AIR NODE,Air,0
 Node,685,THERMAL ZONE: CORR_0100 PTHP MIXED AIR NODE,Air,1
 Node,686,THERMAL ZONE: CORR_0100 PTHP RELIEF AIR NODE,Air,0
 Node,687,THERMAL ZONE: CORR_0200 PTHP MIXED AIR NODE,Air,1
 Node,688,THERMAL ZONE: CORR_0200 PTHP RELIEF AIR NODE,Air,0
 Node,689,THERMAL ZONE: CORR_0300 PTHP MIXED AIR NODE,Air,1
 Node,690,THERMAL ZONE: CORR_0300 PTHP RELIEF AIR NODE,Air,0
 Node,691,THERMAL ZONE: CORR_0400 PTHP MIXED AIR NODE,Air,1
 Node,692,THERMAL ZONE: CORR_0400 PTHP RELIEF AIR NODE,Air,0
 Node,693,THERMAL ZONE: CORR_0500 PTHP MIXED AIR NODE,Air,1
 Node,694,THERMAL ZONE: CORR_0500 PTHP RELIEF AIR NODE,Air,0
 Node,695,THERMAL ZONE: CORR_2100 PTHP MIXED AIR NODE,Air,1
 Node,696,THERMAL ZONE: CORR_2100 PTHP RELIEF AIR NODE,Air,0
 Node,697,THERMAL ZONE: CORR_2300 PTHP MIXED AIR NODE,Air,1
 Node,698,THERMAL ZONE: CORR_2300 PTHP RELIEF AIR NODE,Air,0
 Node,699,THERMAL ZONE: CORR_2301 PTHP MIXED AIR NODE,Air,1
 Node,700,THERMAL ZONE: CORR_2301 PTHP RELIEF AIR NODE,Air,0
 Node,701,THERMAL ZONE: ELEV CONTROL_2301 PTHP MIXED AIR NODE,Air,1
 Node,702,THERMAL ZONE: ELEV CONTROL_2301 PTHP RELIEF AIR NODE,Air,0
 Node,703,THERMAL ZONE: ELEV CONTROL_2302 PTHP MIXED AIR NODE,Air,1
 Node,704,THERMAL ZONE: ELEV CONTROL_2302 PTHP RELIEF AIR NODE,Air,0
 Node,705,THERMAL ZONE: FCC_0100 PTHP MIXED AIR NODE,Air,1
 Node,706,THERMAL ZONE: FCC_0100 PTHP RELIEF AIR NODE,Air,0
 Node,707,THERMAL ZONE: FITNESS_2200 PTHP MIXED AIR NODE,Air,1
 Node,708,THERMAL ZONE: FITNESS_2200 PTHP RELIEF AIR NODE,Air,0
 Node,709,THERMAL ZONE: LEASING_0100 PTHP MIXED AIR NODE,Air,1
 Node,710,THERMAL ZONE: LEASING_0100 PTHP RELIEF AIR NODE,Air,0
 Node,711,THERMAL ZONE: LOBBY_MAIL_0100 PTHP MIXED AIR NODE,Air,1
 Node,712,THERMAL ZONE: LOBBY_MAIL_0100 PTHP RELIEF AIR NODE,Air,0
 Node,713,THERMAL ZONE: LOUNGE_2300 PTHP MIXED AIR NODE,Air,1
 Node,714,THERMAL ZONE: LOUNGE_2300 PTHP RELIEF AIR NODE,Air,0
 Node,715,THERMAL ZONE: LOUNGE_2301 PTHP MIXED AIR NODE,Air,1
 Node,716,THERMAL ZONE: LOUNGE_2301 PTHP RELIEF AIR NODE,Air,0
 Node,717,THERMAL ZONE: UNIT_0201_4B PTHP MIXED AIR NODE,Air,1
 Node,718,THERMAL ZONE: UNIT_0201_4B PTHP RELIEF AIR NODE,Air,0
 Node,719,THERMAL ZONE: UNIT_0202 PTHP MIXED AIR NODE,Air,1
 Node,720,THERMAL ZONE: UNIT_0202 PTHP RELIEF AIR NODE,Air,0
 Node,721,THERMAL ZONE: UNIT_0203 PTHP MIXED AIR NODE,Air,1
 Node,722,THERMAL ZONE: UNIT_0203 PTHP RELIEF AIR NODE,Air,0
 Node,723,THERMAL ZONE: UNIT_0204 PTHP MIXED AIR NODE,Air,1
 Node,724,THERMAL ZONE: UNIT_0204 PTHP RELIEF AIR NODE,Air,0
 Node,725,THERMAL ZONE: UNIT_0205 PTHP MIXED AIR NODE,Air,1
 Node,726,THERMAL ZONE: UNIT_0205 PTHP RELIEF AIR NODE,Air,0
 Node,727,THERMAL ZONE: UNIT_0206 PTHP MIXED AIR NODE,Air,1
 Node,728,THERMAL ZONE: UNIT_0206 PTHP RELIEF AIR NODE,Air,0
 Node,729,THERMAL ZONE: UNIT_0207 PTHP MIXED AIR NODE,Air,1
 Node,730,THERMAL ZONE: UNIT_0207 PTHP RELIEF AIR NODE,Air,0
 Node,731,THERMAL ZONE: UNIT_0208 PTHP MIXED AIR NODE,Air,1
 Node,732,THERMAL ZONE: UNIT_0208 PTHP RELIEF AIR NODE,Air,0
 Node,733,THERMAL ZONE: UNIT_0209_3B PTHP MIXED AIR NODE,Air,1
 Node,734,THERMAL ZONE: UNIT_0209_3B PTHP RELIEF AIR NODE,Air,0
 Node,735,THERMAL ZONE: UNIT_0210 PTHP MIXED AIR NODE,Air,1
 Node,736,THERMAL ZONE: UNIT_0210 PTHP RELIEF AIR NODE,Air,0
 Node,737,THERMAL ZONE: UNIT_0211_2B PTHP MIXED AIR NODE,Air,1
 Node,738,THERMAL ZONE: UNIT_0211_2B PTHP RELIEF AIR NODE,Air,0
 Node,739,THERMAL ZONE: UNIT_0212 PTHP MIXED AIR NODE,Air,1
 Node,740,THERMAL ZONE: UNIT_0212 PTHP RELIEF AIR NODE,Air,0
 Node,741,THERMAL ZONE: UNIT_0213 PTHP MIXED AIR NODE,Air,1
 Node,742,THERMAL ZONE: UNIT_0213 PTHP RELIEF AIR NODE,Air,0
 Node,743,THERMAL ZONE: UNIT_0214 PTHP MIXED AIR NODE,Air,1
 Node,744,THERMAL ZONE: UNIT_0214 PTHP RELIEF AIR NODE,Air,0
 Node,745,THERMAL ZONE: UNIT_0215 PTHP MIXED AIR NODE,Air,1
 Node,746,THERMAL ZONE: UNIT_0215 PTHP RELIEF AIR NODE,Air,0
 Node,747,THERMAL ZONE: UNIT_0216 PTHP MIXED AIR NODE,Air,1
 Node,748,THERMAL ZONE: UNIT_0216 PTHP RELIEF AIR NODE,Air,0
 Node,749,THERMAL ZONE: UNIT_0217 PTHP MIXED AIR NODE,Air,1
 Node,750,THERMAL ZONE: UNIT_0217 PTHP RELIEF AIR NODE,Air,0
 Node,751,THERMAL ZONE: UNIT_0218 PTHP MIXED AIR NODE,Air,1
 Node,752,THERMAL ZONE: UNIT_0218 PTHP RELIEF AIR NODE,Air,0
 Node,753,THERMAL ZONE: UNIT_0219_4B PTHP MIXED AIR NODE,Air,1
 Node,754,THERMAL ZONE: UNIT_0219_4B PTHP RELIEF AIR NODE,Air,0
 Node,755,THERMAL ZONE: UNIT_0301_4B PTHP MIXED AIR NODE,Air,1
 Node,756,THERMAL ZONE: UNIT_0301_4B PTHP RELIEF AIR NODE,Air,0
 Node,757,THERMAL ZONE: UNIT_0302 PTHP MIXED AIR NODE,Air,1
 Node,758,THERMAL ZONE: UNIT_0302 PTHP RELIEF AIR NODE,Air,0
 Node,759,THERMAL ZONE: UNIT_0303 PTHP MIXED AIR NODE,Air,1
 Node,760,THERMAL ZONE: UNIT_0303 PTHP RELIEF AIR NODE,Air,0
 Node,761,THERMAL ZONE: UNIT_0304 PTHP MIXED AIR NODE,Air,1
 Node,762,THERMAL ZONE: UNIT_0304 PTHP RELIEF AIR NODE,Air,0
 Node,763,THERMAL ZONE: UNIT_0305 PTHP MIXED AIR NODE,Air,1
 Node,764,THERMAL ZONE: UNIT_0305 PTHP RELIEF AIR NODE,Air,0
 Node,765,THERMAL ZONE: UNIT_0306 PTHP MIXED AIR NODE,Air,1
 Node,766,THERMAL ZONE: UNIT_0306 PTHP RELIEF AIR NODE,Air,0
 Node,767,THERMAL ZONE: UNIT_0307_3B PTHP MIXED AIR NODE,Air,1
 Node,768,THERMAL ZONE: UNIT_0307_3B PTHP RELIEF AIR NODE,Air,0
 Node,769,THERMAL ZONE: UNIT_0308 PTHP MIXED AIR NODE,Air,1
 Node,770,THERMAL ZONE: UNIT_0308 PTHP RELIEF AIR NODE,Air,0
 Node,771,THERMAL ZONE: UNIT_0309_2B PTHP MIXED AIR NODE,Air,1
 Node,772,THERMAL ZONE: UNIT_0309_2B PTHP RELIEF AIR NODE,Air,0
 Node,773,THERMAL ZONE: UNIT_0310 PTHP MIXED AIR NODE,Air,1
 Node,774,THERMAL ZONE: UNIT_0310 PTHP RELIEF AIR NODE,Air,0
 Node,775,THERMAL ZONE: UNIT_0311 PTHP MIXED AIR NODE,Air,1
 Node,776,THERMAL ZONE: UNIT_0311 PTHP RELIEF AIR NODE,Air,0
 Node,777,THERMAL ZONE: UNIT_0312 PTHP MIXED AIR NODE,Air,1
 Node,778,THERMAL ZONE: UNIT_0312 PTHP RELIEF AIR NODE,Air,0
 Node,779,THERMAL ZONE: UNIT_0313 PTHP MIXED AIR NODE,Air,1
 Node,780,THERMAL ZONE: UNIT_0313 PTHP RELIEF AIR NODE,Air,0
 Node,781,THERMAL ZONE: UNIT_0314 PTHP MIXED AIR NODE,Air,1
 Node,782,THERMAL ZONE: UNIT_0314 PTHP RELIEF AIR NODE,Air,0
 Node,783,THERMAL ZONE: UNIT_0315 PTHP MIXED AIR NODE,Air,1
 Node,784,THERMAL ZONE: UNIT_0315 PTHP RELIEF AIR NODE,Air,0
 Node,785,THERMAL ZONE: UNIT_0316 PTHP MIXED AIR NODE,Air,1
 Node,786,THERMAL ZONE: UNIT_0316 PTHP RELIEF AIR NODE,Air,0
 Node,787,THERMAL ZONE: UNIT_0317_4B PTHP MIXED AIR NODE,Air,1
 Node,788,THERMAL ZONE: UNIT_0317_4B PTHP RELIEF AIR NODE,Air,0
 Node,789,THERMAL ZONE: UNIT_0401_4B PTHP MIXED AIR NODE,Air,1
 Node,790,THERMAL ZONE: UNIT_0401_4B PTHP RELIEF AIR NODE,Air,0
 Node,791,THERMAL ZONE: UNIT_0402 PTHP MIXED AIR NODE,Air,1
 Node,792,THERMAL ZONE: UNIT_0402 PTHP RELIEF AIR NODE,Air,0
 Node,793,THERMAL ZONE: UNIT_0403 PTHP MIXED AIR NODE,Air,1
 Node,794,THERMAL ZONE: UNIT_0403 PTHP RELIEF AIR NODE,Air,0
 Node,795,THERMAL ZONE: UNIT_0404 PTHP MIXED AIR NODE,Air,1
 Node,796,THERMAL ZONE: UNIT_0404 PTHP RELIEF AIR NODE,Air,0
 Node,797,THERMAL ZONE: UNIT_0405 PTHP MIXED AIR NODE,Air,1
 Node,798,THERMAL ZONE: UNIT_0405 PTHP RELIEF AIR NODE,Air,0
 Node,799,THERMAL ZONE: UNIT_0406 PTHP MIXED AIR NODE,Air,1
 Node,800,THERMAL ZONE: UNIT_0406 PTHP RELIEF AIR NODE,Air,0
 Node,801,THERMAL ZONE: UNIT_0407_3B PTHP MIXED AIR NODE,Air,1
 Node,802,THERMAL ZONE: UNIT_0407_3B PTHP RELIEF AIR NODE,Air,0
 Node,803,THERMAL ZONE: UNIT_0408 PTHP MIXED AIR NODE,Air,1
 Node,804,THERMAL ZONE: UNIT_0408 PTHP RELIEF AIR NODE,Air,0
 Node,805,THERMAL ZONE: UNIT_0409_2B PTHP MIXED AIR NODE,Air,1
 Node,806,THERMAL ZONE: UNIT_0409_2B PTHP RELIEF AIR NODE,Air,0
 Node,807,THERMAL ZONE: UNIT_0410 PTHP MIXED AIR NODE,Air,1
 Node,808,THERMAL ZONE: UNIT_0410 PTHP RELIEF AIR NODE,Air,0
 Node,809,THERMAL ZONE: UNIT_0411 PTHP MIXED AIR NODE,Air,1
 Node,810,THERMAL ZONE: UNIT_0411 PTHP RELIEF AIR NODE,Air,0
 Node,811,THERMAL ZONE: UNIT_0412 PTHP MIXED AIR NODE,Air,1
 Node,812,THERMAL ZONE: UNIT_0412 PTHP RELIEF AIR NODE,Air,0
 Node,813,THERMAL ZONE: UNIT_0413 PTHP MIXED AIR NODE,Air,1
 Node,814,THERMAL ZONE: UNIT_0413 PTHP RELIEF AIR NODE,Air,0
 Node,815,THERMAL ZONE: UNIT_0414 PTHP MIXED AIR NODE,Air,1
 Node,816,THERMAL ZONE: UNIT_0414 PTHP RELIEF AIR NODE,Air,0
 Node,817,THERMAL ZONE: UNIT_0415 PTHP MIXED AIR NODE,Air,1
 Node,818,THERMAL ZONE: UNIT_0415 PTHP RELIEF AIR NODE,Air,0
 Node,819,THERMAL ZONE: UNIT_0416 PTHP MIXED AIR NODE,Air,1
 Node,820,THERMAL ZONE: UNIT_0416 PTHP RELIEF AIR NODE,Air,0
 Node,821,THERMAL ZONE: UNIT_0417_4B PTHP MIXED AIR NODE,Air,1
 Node,822,THERMAL ZONE: UNIT_0417_4B PTHP RELIEF AIR NODE,Air,0
 Node,823,THERMAL ZONE: UNIT_0501_4B PTHP MIXED AIR NODE,Air,1
 Node,824,THERMAL ZONE: UNIT_0501_4B PTHP RELIEF AIR NODE,Air,0
 Node,825,THERMAL ZONE: UNIT_0502 PTHP MIXED AIR NODE,Air,1
 Node,826,THERMAL ZONE: UNIT_0502 PTHP RELIEF AIR NODE,Air,0
 Node,827,THERMAL ZONE: UNIT_0503 PTHP MIXED AIR NODE,Air,1
 Node,828,THERMAL ZONE: UNIT_0503 PTHP RELIEF AIR NODE,Air,0
 Node,829,THERMAL ZONE: UNIT_0504 PTHP MIXED AIR NODE,Air,1
 Node,830,THERMAL ZONE: UNIT_0504 PTHP RELIEF AIR NODE,Air,0
 Node,831,THERMAL ZONE: UNIT_0505 PTHP MIXED AIR NODE,Air,1
 Node,832,THERMAL ZONE: UNIT_0505 PTHP RELIEF AIR NODE,Air,0
 Node,833,THERMAL ZONE: UNIT_0506 PTHP MIXED AIR NODE,Air,1
 Node,834,THERMAL ZONE: UNIT_0506 PTHP RELIEF AIR NODE,Air,0
 Node,835,THERMAL ZONE: UNIT_0507_3B PTHP MIXED AIR NODE,Air,1
 Node,836,THERMAL ZONE: UNIT_0507_3B PTHP RELIEF AIR NODE,Air,0
 Node,837,THERMAL ZONE: UNIT_0508 PTHP MIXED AIR NODE,Air,1
 Node,838,THERMAL ZONE: UNIT_0508 PTHP RELIEF AIR NODE,Air,0
 Node,839,THERMAL ZONE: UNIT_0509_2B PTHP MIXED AIR NODE,Air,1
 Node,840,THERMAL ZONE: UNIT_0509_2B PTHP RELIEF AIR NODE,Air,0
 Node,841,THERMAL ZONE: UNIT_0510 PTHP MIXED AIR NODE,Air,1
 Node,842,THERMAL ZONE: UNIT_0510 PTHP RELIEF AIR NODE,Air,0
 Node,843,THERMAL ZONE: UNIT_0511 PTHP MIXED AIR NODE,Air,1
 Node,844,THERMAL ZONE: UNIT_0511 PTHP RELIEF AIR NODE,Air,0
 Node,845,THERMAL ZONE: UNIT_0512 PTHP MIXED AIR NODE,Air,1
 Node,846,THERMAL ZONE: UNIT_0512 PTHP RELIEF AIR NODE,Air,0
 Node,847,THERMAL ZONE: UNIT_0513 PTHP MIXED AIR NODE,Air,1
 Node,848,THERMAL ZONE: UNIT_0513 PTHP RELIEF AIR NODE,Air,0
 Node,849,THERMAL ZONE: UNIT_0514 PTHP MIXED AIR NODE,Air,1
 Node,850,THERMAL ZONE: UNIT_0514 PTHP RELIEF AIR NODE,Air,0
 Node,851,THERMAL ZONE: UNIT_0515 PTHP MIXED AIR NODE,Air,1
 Node,852,THERMAL ZONE: UNIT_0515 PTHP RELIEF AIR NODE,Air,0
 Node,853,THERMAL ZONE: UNIT_0516 PTHP MIXED AIR NODE,Air,1
 Node,854,THERMAL ZONE: UNIT_0516 PTHP RELIEF AIR NODE,Air,0
 Node,855,THERMAL ZONE: UNIT_0517_4B PTHP MIXED AIR NODE,Air,1
 Node,856,THERMAL ZONE: UNIT_0517_4B PTHP RELIEF AIR NODE,Air,0
 Node,857,THERMAL ZONE: UNIT_2101_4B PTHP MIXED AIR NODE,Air,1
 Node,858,THERMAL ZONE: UNIT_2101_4B PTHP RELIEF AIR NODE,Air,0
 Node,859,THERMAL ZONE: UNIT_2102 PTHP MIXED AIR NODE,Air,1
 Node,860,THERMAL ZONE: UNIT_2102 PTHP RELIEF AIR NODE,Air,0
 Node,861,THERMAL ZONE: UNIT_2103 PTHP MIXED AIR NODE,Air,1
 Node,862,THERMAL ZONE: UNIT_2103 PTHP RELIEF AIR NODE,Air,0
 Node,863,THERMAL ZONE: UNIT_2104 PTHP MIXED AIR NODE,Air,1
 Node,864,THERMAL ZONE: UNIT_2104 PTHP RELIEF AIR NODE,Air,0
 Node,865,THERMAL ZONE: UNIT_2105 PTHP MIXED AIR NODE,Air,1
 Node,866,THERMAL ZONE: UNIT_2105 PTHP RELIEF AIR NODE,Air,0
 Node,867,THERMAL ZONE: UNIT_2106 PTHP MIXED AIR NODE,Air,1
 Node,868,THERMAL ZONE: UNIT_2106 PTHP RELIEF AIR NODE,Air,0
 Node,869,THERMAL ZONE: UNIT_2107_3B PTHP MIXED AIR NODE,Air,1
 Node,870,THERMAL ZONE: UNIT_2107_3B PTHP RELIEF AIR NODE,Air,0
 Node,871,THERMAL ZONE: UNIT_2108 PTHP MIXED AIR NODE,Air,1
 Node,872,THERMAL ZONE: UNIT_2108 PTHP RELIEF AIR NODE,Air,0
 Node,873,THERMAL ZONE: UNIT_2109_2B PTHP MIXED AIR NODE,Air,1
 Node,874,THERMAL ZONE: UNIT_2109_2B PTHP RELIEF AIR NODE,Air,0
 Node,875,THERMAL ZONE: UNIT_2110 PTHP MIXED AIR NODE,Air,1
 Node,876,THERMAL ZONE: UNIT_2110 PTHP RELIEF AIR NODE,Air,0
 Node,877,THERMAL ZONE: UNIT_2111 PTHP MIXED AIR NODE,Air,1
 Node,878,THERMAL ZONE: UNIT_2111 PTHP RELIEF AIR NODE,Air,0
 Node,879,THERMAL ZONE: UNIT_2112 PTHP MIXED AIR NODE,Air,1
 Node,880,THERMAL ZONE: UNIT_2112 PTHP RELIEF AIR NODE,Air,0
 Node,881,THERMAL ZONE: UNIT_2113 PTHP MIXED AIR NODE,Air,1
 Node,882,THERMAL ZONE: UNIT_2113 PTHP RELIEF AIR NODE,Air,0
 Node,883,THERMAL ZONE: UNIT_2114 PTHP MIXED AIR NODE,Air,1
 Node,884,THERMAL ZONE: UNIT_2114 PTHP RELIEF AIR NODE,Air,0
 Node,885,THERMAL ZONE: UNIT_2115 PTHP MIXED AIR NODE,Air,1
 Node,886,THERMAL ZONE: UNIT_2115 PTHP RELIEF AIR NODE,Air,0
 Node,887,THERMAL ZONE: UNIT_2116 PTHP MIXED AIR NODE,Air,1
 Node,888,THERMAL ZONE: UNIT_2116 PTHP RELIEF AIR NODE,Air,0
 Node,889,THERMAL ZONE: UNIT_2117_4B PTHP MIXED AIR NODE,Air,1
 Node,890,THERMAL ZONE: UNIT_2117_4B PTHP RELIEF AIR NODE,Air,0
 Node,891,THERMAL ZONE: XFMR_0201 PTHP MIXED AIR NODE,Air,1
 Node,892,THERMAL ZONE: XFMR_0201 PTHP RELIEF AIR NODE,Air,0
 Node,893,THERMAL ZONE: XFMR_0401 PTHP MIXED AIR NODE,Air,1
 Node,894,THERMAL ZONE: XFMR_0401 PTHP RELIEF AIR NODE,Air,0
 Node,895,THERMAL ZONE: AMEN_0300 PTHP HEATING COIL OUTLET NODE,Air,1
 Node,896,THERMAL ZONE: AMEN_0300 PTHP FAN OUTLET NODE,Air,1
 Node,897,THERMAL ZONE: AMEN_0400 PTHP HEATING COIL OUTLET NODE,Air,1
 Node,898,THERMAL ZONE: AMEN_0400 PTHP FAN OUTLET NODE,Air,1
 Node,899,THERMAL ZONE: AMEN_0501 PTHP HEATING COIL OUTLET NODE,Air,1
 Node,900,THERMAL ZONE: AMEN_0501 PTHP FAN OUTLET NODE,Air,1
 Node,901,THERMAL ZONE: AMEN_2100 PTHP HEATING COIL OUTLET NODE,Air,1
 Node,902,THERMAL ZONE: AMEN_2100 PTHP FAN OUTLET NODE,Air,1
 Node,903,THERMAL ZONE: AMEN_2200 PTHP HEATING COIL OUTLET NODE,Air,1
 Node,904,THERMAL ZONE: AMEN_2200 PTHP FAN OUTLET NODE,Air,1
 Node,905,THERMAL ZONE: AMEN_2300 PTHP HEATING COIL OUTLET NODE,Air,1
 Node,906,THERMAL ZONE: AMEN_2300 PTHP FAN OUTLET NODE,Air,1
 Node,907,THERMAL ZONE: CORR_0100 PTHP HEATING COIL OUTLET NODE,Air,1
 Node,908,THERMAL ZONE: CORR_0100 PTHP FAN OUTLET NODE,Air,1
 Node,909,THERMAL ZONE: CORR_0200 PTHP HEATING COIL OUTLET NODE,Air,1
 Node,910,THERMAL ZONE: CORR_0200 PTHP FAN OUTLET NODE,Air,1
 Node,911,THERMAL ZONE: CORR_0300 PTHP HEATING COIL OUTLET NODE,Air,1
 Node,912,THERMAL ZONE: CORR_0300 PTHP FAN OUTLET NODE,Air,1
 Node,913,THERMAL ZONE: CORR_0400 PTHP HEATING COIL OUTLET NODE,Air,1
 Node,914,THERMAL ZONE: CORR_0400 PTHP FAN OUTLET NODE,Air,1
 Node,915,THERMAL ZONE: CORR_0500 PTHP HEATING COIL OUTLET NODE,Air,1
 Node,916,THERMAL ZONE: CORR_0500 PTHP FAN OUTLET NODE,Air,1
 Node,917,THERMAL ZONE: CORR_2100 PTHP HEATING COIL OUTLET NODE,Air,1
 Node,918,THERMAL ZONE: CORR_2100 PTHP FAN OUTLET NODE,Air,1
 Node,919,THERMAL ZONE: CORR_2300 PTHP HEATING COIL OUTLET NODE,Air,1
 Node,920,THERMAL ZONE: CORR_2300 PTHP FAN OUTLET NODE,Air,1
 Node,921,THERMAL ZONE: CORR_2301 PTHP HEATING COIL OUTLET NODE,Air,1
 Node,922,THERMAL ZONE: CORR_2301 PTHP FAN OUTLET NODE,Air,1
 Node,923,THERMAL ZONE: ELEV CONTROL_2301 PTHP HEATING COIL OUTLET NODE,Air,1
 Node,924,THERMAL ZONE: ELEV CONTROL_2301 PTHP FAN OUTLET NODE,Air,1
 Node,925,THERMAL ZONE: ELEV CONTROL_2302 PTHP HEATING COIL OUTLET NODE,Air,1
 Node,926,THERMAL ZONE: ELEV CONTROL_2302 PTHP FAN OUTLET NODE,Air,1
 Node,927,THERMAL ZONE: FCC_0100 PTHP HEATING COIL OUTLET NODE,Air,1
 Node,928,THERMAL ZONE: FCC_0100 PTHP FAN OUTLET NODE,Air,1
 Node,929,THERMAL ZONE: FITNESS_2200 PTHP HEATING COIL OUTLET NODE,Air,1
 Node,930,THERMAL ZONE: FITNESS_2200 PTHP FAN OUTLET NODE,Air,1
 Node,931,THERMAL ZONE: LEASING_0100 PTHP HEATING COIL OUTLET NODE,Air,1
 Node,932,THERMAL ZONE: LEASING_0100 PTHP FAN OUTLET NODE,Air,1
 Node,933,THERMAL ZONE: LOBBY_MAIL_0100 PTHP HEATING COIL OUTLET NODE,Air,1
 Node,934,THERMAL ZONE: LOBBY_MAIL_0100 PTHP FAN OUTLET NODE,Air,1
 Node,935,THERMAL ZONE: LOUNGE_2300 PTHP HEATING COIL OUTLET NODE,Air,1
 Node,936,THERMAL ZONE: LOUNGE_2300 PTHP FAN OUTLET NODE,Air,1
 Node,937,THERMAL ZONE: LOUNGE_2301 PTHP HEATING COIL OUTLET NODE,Air,1
 Node,938,THERMAL ZONE: LOUNGE_2301 PTHP FAN OUTLET NODE,Air,1
 Node,939,THERMAL ZONE: UNIT_0201_4B PTHP HEATING COIL OUTLET NODE,Air,1
 Node,940,THERMAL ZONE: UNIT_0201_4B PTHP FAN OUTLET NODE,Air,1
 Node,941,THERMAL ZONE: UNIT_0202 PTHP HEATING COIL OUTLET NODE,Air,1
 Node,942,THERMAL ZONE: UNIT_0202 PTHP FAN OUTLET NODE,Air,1
 Node,943,THERMAL ZONE: UNIT_0203 PTHP HEATING COIL OUTLET NODE,Air,1
 Node,944,THERMAL ZONE: UNIT_0203 PTHP FAN OUTLET NODE,Air,1
 Node,945,THERMAL ZONE: UNIT_0204 PTHP HEATING COIL OUTLET NODE,Air,1
 Node,946,THERMAL ZONE: UNIT_0204 PTHP FAN OUTLET NODE,Air,1
 Node,947,THERMAL ZONE: UNIT_0205 PTHP HEATING COIL OUTLET NODE,Air,1
 Node,948,THERMAL ZONE: UNIT_0205 PTHP FAN OUTLET NODE,Air,1
 Node,949,THERMAL ZONE: UNIT_0206 PTHP HEATING COIL OUTLET NODE,Air,1
 Node,950,THERMAL ZONE: UNIT_0206 PTHP FAN OUTLET NODE,Air,1
 Node,951,THERMAL ZONE: UNIT_0207 PTHP HEATING COIL OUTLET NODE,Air,1
 Node,952,THERMAL ZONE: UNIT_0207 PTHP FAN OUTLET NODE,Air,1
 Node,953,THERMAL ZONE: UNIT_0208 PTHP HEATING COIL OUTLET NODE,Air,1
 Node,954,THERMAL ZONE: UNIT_0208 PTHP FAN OUTLET NODE,Air,1
 Node,955,THERMAL ZONE: UNIT_0209_3B PTHP HEATING COIL OUTLET NODE,Air,1
 Node,956,THERMAL ZONE: UNIT_0209_3B PTHP FAN OUTLET NODE,Air,1
 Node,957,THERMAL ZONE: UNIT_0210 PTHP HEATING COIL OUTLET NODE,Air,1
 Node,958,THERMAL ZONE: UNIT_0210 PTHP FAN OUTLET NODE,Air,1
 Node,959,THERMAL ZONE: UNIT_0211_2B PTHP HEATING COIL OUTLET NODE,Air,1
 Node,960,THERMAL ZONE: UNIT_0211_2B PTHP FAN OUTLET NODE,Air,1
 Node,961,THERMAL ZONE: UNIT_0212 PTHP HEATING COIL OUTLET NODE,Air,1
 Node,962,THERMAL ZONE: UNIT_0212 PTHP FAN OUTLET NODE,Air,1
 Node,963,THERMAL ZONE: UNIT_0213 PTHP HEATING COIL OUTLET NODE,Air,1
 Node,964,THERMAL ZONE: UNIT_0213 PTHP FAN OUTLET NODE,Air,1
 Node,965,THERMAL ZONE: UNIT_0214 PTHP HEATING COIL OUTLET NODE,Air,1
 Node,966,THERMAL ZONE: UNIT_0214 PTHP FAN OUTLET NODE,Air,1
 Node,967,THERMAL ZONE: UNIT_0215 PTHP HEATING COIL OUTLET NODE,Air,1
 Node,968,THERMAL ZONE: UNIT_0215 PTHP FAN OUTLET NODE,Air,1
 Node,969,THERMAL ZONE: UNIT_0216 PTHP HEATING COIL OUTLET NODE,Air,1
 Node,970,THERMAL ZONE: UNIT_0216 PTHP FAN OUTLET NODE,Air,1
 Node,971,THERMAL ZONE: UNIT_0217 PTHP HEATING COIL OUTLET NODE,Air,1
 Node,972,THERMAL ZONE: UNIT_0217 PTHP FAN OUTLET NODE,Air,1
 Node,973,THERMAL ZONE: UNIT_0218 PTHP HEATING COIL OUTLET NODE,Air,1
 Node,974,THERMAL ZONE: UNIT_0218 PTHP FAN OUTLET NODE,Air,1
 Node,975,THERMAL ZONE: UNIT_0219_4B PTHP HEATING COIL OUTLET NODE,Air,1
 Node,976,THERMAL ZONE: UNIT_0219_4B PTHP FAN OUTLET NODE,Air,1
 Node,977,THERMAL ZONE: UNIT_0301_4B PTHP HEATING COIL OUTLET NODE,Air,1
 Node,978,THERMAL ZONE: UNIT_0301_4B PTHP FAN OUTLET NODE,Air,1
 Node,979,THERMAL ZONE: UNIT_0302 PTHP HEATING COIL OUTLET NODE,Air,1
 Node,980,THERMAL ZONE: UNIT_0302 PTHP FAN OUTLET NODE,Air,1
 Node,981,THERMAL ZONE: UNIT_0303 PTHP HEATING COIL OUTLET NODE,Air,1
 Node,982,THERMAL ZONE: UNIT_0303 PTHP FAN OUTLET NODE,Air,1
 Node,983,THERMAL ZONE: UNIT_0304 PTHP HEATING COIL OUTLET NODE,Air,1
 Node,984,THERMAL ZONE: UNIT_0304 PTHP FAN OUTLET NODE,Air,1
 Node,985,THERMAL ZONE: UNIT_0305 PTHP HEATING COIL OUTLET NODE,Air,1
 Node,986,THERMAL ZONE: UNIT_0305 PTHP FAN OUTLET NODE,Air,1
 Node,987,THERMAL ZONE: UNIT_0306 PTHP HEATING COIL OUTLET NODE,Air,1
 Node,988,THERMAL ZONE: UNIT_0306 PTHP FAN OUTLET NODE,Air,1
 Node,989,THERMAL ZONE: UNIT_0307_3B PTHP HEATING COIL OUTLET NODE,Air,1
 Node,990,THERMAL ZONE: UNIT_0307_3B PTHP FAN OUTLET NODE,Air,1
 Node,991,THERMAL ZONE: UNIT_0308 PTHP HEATING COIL OUTLET NODE,Air,1
 Node,992,THERMAL ZONE: UNIT_0308 PTHP FAN OUTLET NODE,Air,1
 Node,993,THERMAL ZONE: UNIT_0309_2B PTHP HEATING COIL OUTLET NODE,Air,1
 Node,994,THERMAL ZONE: UNIT_0309_2B PTHP FAN OUTLET NODE,Air,1
 Node,995,THERMAL ZONE: UNIT_0310 PTHP HEATING COIL OUTLET NODE,Air,1
 Node,996,THERMAL ZONE: UNIT_0310 PTHP FAN OUTLET NODE,Air,1
 Node,997,THERMAL ZONE: UNIT_0311 PTHP HEATING COIL OUTLET NODE,Air,1
 Node,998,THERMAL ZONE: UNIT_0311 PTHP FAN OUTLET NODE,Air,1
 Node,999,THERMAL ZONE: UNIT_0312 PTHP HEATING COIL OUTLET NODE,Air,1
 Node,1000,THERMAL ZONE: UNIT_0312 PTHP FAN OUTLET NODE,Air,1
 Node,1001,THERMAL ZONE: UNIT_0313 PTHP HEATING COIL OUTLET NODE,Air,1
 Node,1002,THERMAL ZONE: UNIT_0313 PTHP FAN OUTLET NODE,Air,1
 Node,1003,THERMAL ZONE: UNIT_0314 PTHP HEATING COIL OUTLET NODE,Air,1
 Node,1004,THERMAL ZONE: UNIT_0314 PTHP FAN OUTLET NODE,Air,1
 Node,1005,THERMAL ZONE: UNIT_0315 PTHP HEATING COIL OUTLET NODE,Air,1
 Node,1006,THERMAL ZONE: UNIT_0315 PTHP FAN OUTLET NODE,Air,1
 Node,1007,THERMAL ZONE: UNIT_0316 PTHP HEATING COIL OUTLET NODE,Air,1
 Node,1008,THERMAL ZONE: UNIT_0316 PTHP FAN OUTLET NODE,Air,1
 Node,1009,THERMAL ZONE: UNIT_0317_4B PTHP HEATING COIL OUTLET NODE,Air,1
 Node,1010,THERMAL ZONE: UNIT_0317_4B PTHP FAN OUTLET NODE,Air,1
 Node,1011,THERMAL ZONE: UNIT_0401_4B PTHP HEATING COIL OUTLET NODE,Air,1
 Node,1012,THERMAL ZONE: UNIT_0401_4B PTHP FAN OUTLET NODE,Air,1
 Node,1013,THERMAL ZONE: UNIT_0402 PTHP HEATING COIL OUTLET NODE,Air,1
 Node,1014,THERMAL ZONE: UNIT_0402 PTHP FAN OUTLET NODE,Air,1
 Node,1015,THERMAL ZONE: UNIT_0403 PTHP HEATING COIL OUTLET NODE,Air,1
 Node,1016,THERMAL ZONE: UNIT_0403 PTHP FAN OUTLET NODE,Air,1
 Node,1017,THERMAL ZONE: UNIT_0404 PTHP HEATING COIL OUTLET NODE,Air,1
 Node,1018,THERMAL ZONE: UNIT_0404 PTHP FAN OUTLET NODE,Air,1
 Node,1019,THERMAL ZONE: UNIT_0405 PTHP HEATING COIL OUTLET NODE,Air,1
 Node,1020,THERMAL ZONE: UNIT_0405 PTHP FAN OUTLET NODE,Air,1
 Node,1021,THERMAL ZONE: UNIT_0406 PTHP HEATING COIL OUTLET NODE,Air,1
 Node,1022,THERMAL ZONE: UNIT_0406 PTHP FAN OUTLET NODE,Air,1
 Node,1023,THERMAL ZONE: UNIT_0407_3B PTHP HEATING COIL OUTLET NODE,Air,1
 Node,1024,THERMAL ZONE: UNIT_0407_3B PTHP FAN OUTLET NODE,Air,1
 Node,1025,THERMAL ZONE: UNIT_0408 PTHP HEATING COIL OUTLET NODE,Air,1
 Node,1026,THERMAL ZONE: UNIT_0408 PTHP FAN OUTLET NODE,Air,1
 Node,1027,THERMAL ZONE: UNIT_0409_2B PTHP HEATING COIL OUTLET NODE,Air,1
 Node,1028,THERMAL ZONE: UNIT_0409_2B PTHP FAN OUTLET NODE,Air,1
 Node,1029,THERMAL ZONE: UNIT_0410 PTHP HEATING COIL OUTLET NODE,Air,1
 Node,1030,THERMAL ZONE: UNIT_0410 PTHP FAN OUTLET NODE,Air,1
 Node,1031,THERMAL ZONE: UNIT_0411 PTHP HEATING COIL OUTLET NODE,Air,1
 Node,1032,THERMAL ZONE: UNIT_0411 PTHP FAN OUTLET NODE,Air,1
 Node,1033,THERMAL ZONE: UNIT_0412 PTHP HEATING COIL OUTLET NODE,Air,1
 Node,1034,THERMAL ZONE: UNIT_0412 PTHP FAN OUTLET NODE,Air,1
 Node,1035,THERMAL ZONE: UNIT_0413 PTHP HEATING COIL OUTLET NODE,Air,1
 Node,1036,THERMAL ZONE: UNIT_0413 PTHP FAN OUTLET NODE,Air,1
 Node,1037,THERMAL ZONE: UNIT_0414 PTHP HEATING COIL OUTLET NODE,Air,1
 Node,1038,THERMAL ZONE: UNIT_0414 PTHP FAN OUTLET NODE,Air,1
 Node,1039,THERMAL ZONE: UNIT_0415 PTHP HEATING COIL OUTLET NODE,Air,1
 Node,1040,THERMAL ZONE: UNIT_0415 PTHP FAN OUTLET NODE,Air,1
 Node,1041,THERMAL ZONE: UNIT_0416 PTHP HEATING COIL OUTLET NODE,Air,1
 Node,1042,THERMAL ZONE: UNIT_0416 PTHP FAN OUTLET NODE,Air,1
 Node,1043,THERMAL ZONE: UNIT_0417_4B PTHP HEATING COIL OUTLET NODE,Air,1
 Node,1044,THERMAL ZONE: UNIT_0417_4B PTHP FAN OUTLET NODE,Air,1
 Node,1045,THERMAL ZONE: UNIT_0501_4B PTHP HEATING COIL OUTLET NODE,Air,1
 Node,1046,THERMAL ZONE: UNIT_0501_4B PTHP FAN OUTLET NODE,Air,1
 Node,1047,THERMAL ZONE: UNIT_0502 PTHP HEATING COIL OUTLET NODE,Air,1
 Node,1048,THERMAL ZONE: UNIT_0502 PTHP FAN OUTLET NODE,Air,1
 Node,1049,THERMAL ZONE: UNIT_0503 PTHP HEATING COIL OUTLET NODE,Air,1
 Node,1050,THERMAL ZONE: UNIT_0503 PTHP FAN OUTLET NODE,Air,1
 Node,1051,THERMAL ZONE: UNIT_0504 PTHP HEATING COIL OUTLET NODE,Air,1
 Node,1052,THERMAL ZONE: UNIT_0504 PTHP FAN OUTLET NODE,Air,1
 Node,1053,THERMAL ZONE: UNIT_0505 PTHP HEATING COIL OUTLET NODE,Air,1
 Node,1054,THERMAL ZONE: UNIT_0505 PTHP FAN OUTLET NODE,Air,1
 Node,1055,THERMAL ZONE: UNIT_0506 PTHP HEATING COIL OUTLET NODE,Air,1
 Node,1056,THERMAL ZONE: UNIT_0506 PTHP FAN OUTLET NODE,Air,1
 Node,1057,THERMAL ZONE: UNIT_0507_3B PTHP HEATING COIL OUTLET NODE,Air,1
 Node,1058,THERMAL ZONE: UNIT_0507_3B PTHP FAN OUTLET NODE,Air,1
 Node,1059,THERMAL ZONE: UNIT_0508 PTHP HEATING COIL OUTLET NODE,Air,1
 Node,1060,THERMAL ZONE: UNIT_0508 PTHP FAN OUTLET NODE,Air,1
 Node,1061,THERMAL ZONE: UNIT_0509_2B PTHP HEATING COIL OUTLET NODE,Air,1
 Node,1062,THERMAL ZONE: UNIT_0509_2B PTHP FAN OUTLET NODE,Air,1
 Node,1063,THERMAL ZONE: UNIT_0510 PTHP HEATING COIL OUTLET NODE,Air,1
 Node,1064,THERMAL ZONE: UNIT_0510 PTHP FAN OUTLET NODE,Air,1
 Node,1065,THERMAL ZONE: UNIT_0511 PTHP HEATING COIL OUTLET NODE,Air,1
 Node,1066,THERMAL ZONE: UNIT_0511 PTHP FAN OUTLET NODE,Air,1
 Node,1067,THERMAL ZONE: UNIT_0512 PTHP HEATING COIL OUTLET NODE,Air,1
 Node,1068,THERMAL ZONE: UNIT_0512 PTHP FAN OUTLET NODE,Air,1
 Node,1069,THERMAL ZONE: UNIT_0513 PTHP HEATING COIL OUTLET NODE,Air,1
 Node,1070,THERMAL ZONE: UNIT_0513 PTHP FAN OUTLET NODE,Air,1
 Node,1071,THERMAL ZONE: UNIT_0514 PTHP HEATING COIL OUTLET NODE,Air,1
 Node,1072,THERMAL ZONE: UNIT_0514 PTHP FAN OUTLET NODE,Air,1
 Node,1073,THERMAL ZONE: UNIT_0515 PTHP HEATING COIL OUTLET NODE,Air,1
 Node,1074,THERMAL ZONE: UNIT_0515 PTHP FAN OUTLET NODE,Air,1
 Node,1075,THERMAL ZONE: UNIT_0516 PTHP HEATING COIL OUTLET NODE,Air,1
 Node,1076,THERMAL ZONE: UNIT_0516 PTHP FAN OUTLET NODE,Air,1
 Node,1077,THERMAL ZONE: UNIT_0517_4B PTHP HEATING COIL OUTLET NODE,Air,1
 Node,1078,THERMAL ZONE: UNIT_0517_4B PTHP FAN OUTLET NODE,Air,1
 Node,1079,THERMAL ZONE: UNIT_2101_4B PTHP HEATING COIL OUTLET NODE,Air,1
 Node,1080,THERMAL ZONE: UNIT_2101_4B PTHP FAN OUTLET NODE,Air,1
 Node,1081,THERMAL ZONE: UNIT_2102 PTHP HEATING COIL OUTLET NODE,Air,1
 Node,1082,THERMAL ZONE: UNIT_2102 PTHP FAN OUTLET NODE,Air,1
 Node,1083,THERMAL ZONE: UNIT_2103 PTHP HEATING COIL OUTLET NODE,Air,1
 Node,1084,THERMAL ZONE: UNIT_2103 PTHP FAN OUTLET NODE,Air,1
 Node,1085,THERMAL ZONE: UNIT_2104 PTHP HEATING COIL OUTLET NODE,Air,1
 Node,1086,THERMAL ZONE: UNIT_2104 PTHP FAN OUTLET NODE,Air,1
 Node,1087,THERMAL ZONE: UNIT_2105 PTHP HEATING COIL OUTLET NODE,Air,1
 Node,1088,THERMAL ZONE: UNIT_2105 PTHP FAN OUTLET NODE,Air,1
 Node,1089,THERMAL ZONE: UNIT_2106 PTHP HEATING COIL OUTLET NODE,Air,1
 Node,1090,THERMAL ZONE: UNIT_2106 PTHP FAN OUTLET NODE,Air,1
 Node,1091,THERMAL ZONE: UNIT_2107_3B PTHP HEATING COIL OUTLET NODE,Air,1
 Node,1092,THERMAL ZONE: UNIT_2107_3B PTHP FAN OUTLET NODE,Air,1
 Node,1093,THERMAL ZONE: UNIT_2108 PTHP HEATING COIL OUTLET NODE,Air,1
 Node,1094,THERMAL ZONE: UNIT_2108 PTHP FAN OUTLET NODE,Air,1
 Node,1095,THERMAL ZONE: UNIT_2109_2B PTHP HEATING COIL OUTLET NODE,Air,1
 Node,1096,THERMAL ZONE: UNIT_2109_2B PTHP FAN OUTLET NODE,Air,1
 Node,1097,THERMAL ZONE: UNIT_2110 PTHP HEATING COIL OUTLET NODE,Air,1
 Node,1098,THERMAL ZONE: UNIT_2110 PTHP FAN OUTLET NODE,Air,1
 Node,1099,THERMAL ZONE: UNIT_2111 PTHP HEATING COIL OUTLET NODE,Air,1
 Node,1100,THERMAL ZONE: UNIT_2111 PTHP FAN OUTLET NODE,Air,1
 Node,1101,THERMAL ZONE: UNIT_2112 PTHP HEATING COIL OUTLET NODE,Air,1
 Node,1102,THERMAL ZONE: UNIT_2112 PTHP FAN OUTLET NODE,Air,1
 Node,1103,THERMAL ZONE: UNIT_2113 PTHP HEATING COIL OUTLET NODE,Air,1
 Node,1104,THERMAL ZONE: UNIT_2113 PTHP FAN OUTLET NODE,Air,1
 Node,1105,THERMAL ZONE: UNIT_2114 PTHP HEATING COIL OUTLET NODE,Air,1
 Node,1106,THERMAL ZONE: UNIT_2114 PTHP FAN OUTLET NODE,Air,1
 Node,1107,THERMAL ZONE: UNIT_2115 PTHP HEATING COIL OUTLET NODE,Air,1
 Node,1108,THERMAL ZONE: UNIT_2115 PTHP FAN OUTLET NODE,Air,1
 Node,1109,THERMAL ZONE: UNIT_2116 PTHP HEATING COIL OUTLET NODE,Air,1
 Node,1110,THERMAL ZONE: UNIT_2116 PTHP FAN OUTLET NODE,Air,1
 Node,1111,THERMAL ZONE: UNIT_2117_4B PTHP HEATING COIL OUTLET NODE,Air,1
 Node,1112,THERMAL ZONE: UNIT_2117_4B PTHP FAN OUTLET NODE,Air,1
 Node,1113,THERMAL ZONE: XFMR_0201 PTHP HEATING COIL OUTLET NODE,Air,1
 Node,1114,THERMAL ZONE: XFMR_0201 PTHP FAN OUTLET NODE,Air,1
 Node,1115,THERMAL ZONE: XFMR_0401 PTHP HEATING COIL OUTLET NODE,Air,1
 Node,1116,THERMAL ZONE: XFMR_0401 PTHP FAN OUTLET NODE,Air,1
 Node,1117,THERMAL ZONE: AMEN_0300 PTHP COOLING COIL OUTLET NODE,Air,1
 Node,1118,THERMAL ZONE: AMEN_0400 PTHP COOLING COIL OUTLET NODE,Air,1
 Node,1119,THERMAL ZONE: AMEN_0501 PTHP COOLING COIL OUTLET NODE,Air,1
 Node,1120,THERMAL ZONE: AMEN_2100 PTHP COOLING COIL OUTLET NODE,Air,1
 Node,1121,THERMAL ZONE: AMEN_2200 PTHP COOLING COIL OUTLET NODE,Air,1
 Node,1122,THERMAL ZONE: AMEN_2300 PTHP COOLING COIL OUTLET NODE,Air,1
 Node,1123,THERMAL ZONE: CORR_0100 PTHP COOLING COIL OUTLET NODE,Air,1
 Node,1124,THERMAL ZONE: CORR_0200 PTHP COOLING COIL OUTLET NODE,Air,1
 Node,1125,THERMAL ZONE: CORR_0300 PTHP COOLING COIL OUTLET NODE,Air,1
 Node,1126,THERMAL ZONE: CORR_0400 PTHP COOLING COIL OUTLET NODE,Air,1
 Node,1127,THERMAL ZONE: CORR_0500 PTHP COOLING COIL OUTLET NODE,Air,1
 Node,1128,THERMAL ZONE: CORR_2100 PTHP COOLING COIL OUTLET NODE,Air,1
 Node,1129,THERMAL ZONE: CORR_2300 PTHP COOLING COIL OUTLET NODE,Air,1
 Node,1130,THERMAL ZONE: CORR_2301 PTHP COOLING COIL OUTLET NODE,Air,1
 Node,1131,THERMAL ZONE: ELEV CONTROL_2301 PTHP COOLING COIL OUTLET NODE,Air,1
 Node,1132,THERMAL ZONE: ELEV CONTROL_2302 PTHP COOLING COIL OUTLET NODE,Air,1
 Node,1133,THERMAL ZONE: FCC_0100 PTHP COOLING COIL OUTLET NODE,Air,1
 Node,1134,THERMAL ZONE: FITNESS_2200 PTHP COOLING COIL OUTLET NODE,Air,1
 Node,1135,THERMAL ZONE: LEASING_0100 PTHP COOLING COIL OUTLET NODE,Air,1
 Node,1136,THERMAL ZONE: LOBBY_MAIL_0100 PTHP COOLING COIL OUTLET NODE,Air,1
 Node,1137,THERMAL ZONE: LOUNGE_2300 PTHP COOLING COIL OUTLET NODE,Air,1
 Node,1138,THERMAL ZONE: LOUNGE_2301 PTHP COOLING COIL OUTLET NODE,Air,1
 Node,1139,THERMAL ZONE: UNIT_0201_4B PTHP COOLING COIL OUTLET NODE,Air,1
 Node,1140,THERMAL ZONE: UNIT_0202 PTHP COOLING COIL OUTLET NODE,Air,1
 Node,1141,THERMAL ZONE: UNIT_0203 PTHP COOLING COIL OUTLET NODE,Air,1
 Node,1142,THERMAL ZONE: UNIT_0204 PTHP COOLING COIL OUTLET NODE,Air,1
 Node,1143,THERMAL ZONE: UNIT_0205 PTHP COOLING COIL OUTLET NODE,Air,1
 Node,1144,THERMAL ZONE: UNIT_0206 PTHP COOLING COIL OUTLET NODE,Air,1
 Node,1145,THERMAL ZONE: UNIT_0207 PTHP COOLING COIL OUTLET NODE,Air,1
 Node,1146,THERMAL ZONE: UNIT_0208 PTHP COOLING COIL OUTLET NODE,Air,1
 Node,1147,THERMAL ZONE: UNIT_0209_3B PTHP COOLING COIL OUTLET NODE,Air,1
 Node,1148,THERMAL ZONE: UNIT_0210 PTHP COOLING COIL OUTLET NODE,Air,1
 Node,1149,THERMAL ZONE: UNIT_0211_2B PTHP COOLING COIL OUTLET NODE,Air,1
 Node,1150,THERMAL ZONE: UNIT_0212 PTHP COOLING COIL OUTLET NODE,Air,1
 Node,1151,THERMAL ZONE: UNIT_0213 PTHP COOLING COIL OUTLET NODE,Air,1
 Node,1152,THERMAL ZONE: UNIT_0214 PTHP COOLING COIL OUTLET NODE,Air,1
 Node,1153,THERMAL ZONE: UNIT_0215 PTHP COOLING COIL OUTLET NODE,Air,1
 Node,1154,THERMAL ZONE: UNIT_0216 PTHP COOLING COIL OUTLET NODE,Air,1
 Node,1155,THERMAL ZONE: UNIT_0217 PTHP COOLING COIL OUTLET NODE,Air,1
 Node,1156,THERMAL ZONE: UNIT_0218 PTHP COOLING COIL OUTLET NODE,Air,1
 Node,1157,THERMAL ZONE: UNIT_0219_4B PTHP COOLING COIL OUTLET NODE,Air,1
 Node,1158,THERMAL ZONE: UNIT_0301_4B PTHP COOLING COIL OUTLET NODE,Air,1
 Node,1159,THERMAL ZONE: UNIT_0302 PTHP COOLING COIL OUTLET NODE,Air,1
 Node,1160,THERMAL ZONE: UNIT_0303 PTHP COOLING COIL OUTLET NODE,Air,1
 Node,1161,THERMAL ZONE: UNIT_0304 PTHP COOLING COIL OUTLET NODE,Air,1
 Node,1162,THERMAL ZONE: UNIT_0305 PTHP COOLING COIL OUTLET NODE,Air,1
 Node,1163,THERMAL ZONE: UNIT_0306 PTHP COOLING COIL OUTLET NODE,Air,1
 Node,1164,THERMAL ZONE: UNIT_0307_3B PTHP COOLING COIL OUTLET NODE,Air,1
 Node,1165,THERMAL ZONE: UNIT_0308 PTHP COOLING COIL OUTLET NODE,Air,1
 Node,1166,THERMAL ZONE: UNIT_0309_2B PTHP COOLING COIL OUTLET NODE,Air,1
 Node,1167,THERMAL ZONE: UNIT_0310 PTHP COOLING COIL OUTLET NODE,Air,1
 Node,1168,THERMAL ZONE: UNIT_0311 PTHP COOLING COIL OUTLET NODE,Air,1
 Node,1169,THERMAL ZONE: UNIT_0312 PTHP COOLING COIL OUTLET NODE,Air,1
 Node,1170,THERMAL ZONE: UNIT_0313 PTHP COOLING COIL OUTLET NODE,Air,1
 Node,1171,THERMAL ZONE: UNIT_0314 PTHP COOLING COIL OUTLET NODE,Air,1
 Node,1172,THERMAL ZONE: UNIT_0315 PTHP COOLING COIL OUTLET NODE,Air,1
 Node,1173,THERMAL ZONE: UNIT_0316 PTHP COOLING COIL OUTLET NODE,Air,1
 Node,1174,THERMAL ZONE: UNIT_0317_4B PTHP COOLING COIL OUTLET NODE,Air,1
 Node,1175,THERMAL ZONE: UNIT_0401_4B PTHP COOLING COIL OUTLET NODE,Air,1
 Node,1176,THERMAL ZONE: UNIT_0402 PTHP COOLING COIL OUTLET NODE,Air,1
 Node,1177,THERMAL ZONE: UNIT_0403 PTHP COOLING COIL OUTLET NODE,Air,1
 Node,1178,THERMAL ZONE: UNIT_0404 PTHP COOLING COIL OUTLET NODE,Air,1
 Node,1179,THERMAL ZONE: UNIT_0405 PTHP COOLING COIL OUTLET NODE,Air,1
 Node,1180,THERMAL ZONE: UNIT_0406 PTHP COOLING COIL OUTLET NODE,Air,1
 Node,1181,THERMAL ZONE: UNIT_0407_3B PTHP COOLING COIL OUTLET NODE,Air,1
 Node,1182,THERMAL ZONE: UNIT_0408 PTHP COOLING COIL OUTLET NODE,Air,1
 Node,1183,THERMAL ZONE: UNIT_0409_2B PTHP COOLING COIL OUTLET NODE,Air,1
 Node,1184,THERMAL ZONE: UNIT_0410 PTHP COOLING COIL OUTLET NODE,Air,1
 Node,1185,THERMAL ZONE: UNIT_0411 PTHP COOLING COIL OUTLET NODE,Air,1
 Node,1186,THERMAL ZONE: UNIT_0412 PTHP COOLING COIL OUTLET NODE,Air,1
 Node,1187,THERMAL ZONE: UNIT_0413 PTHP COOLING COIL OUTLET NODE,Air,1
 Node,1188,THERMAL ZONE: UNIT_0414 PTHP COOLING COIL OUTLET NODE,Air,1
 Node,1189,THERMAL ZONE: UNIT_0415 PTHP COOLING COIL OUTLET NODE,Air,1
 Node,1190,THERMAL ZONE: UNIT_0416 PTHP COOLING COIL OUTLET NODE,Air,1
 Node,1191,THERMAL ZONE: UNIT_0417_4B PTHP COOLING COIL OUTLET NODE,Air,1
 Node,1192,THERMAL ZONE: UNIT_0501_4B PTHP COOLING COIL OUTLET NODE,Air,1
 Node,1193,THERMAL ZONE: UNIT_0502 PTHP COOLING COIL OUTLET NODE,Air,1
 Node,1194,THERMAL ZONE: UNIT_0503 PTHP COOLING COIL OUTLET NODE,Air,1
 Node,1195,THERMAL ZONE: UNIT_0504 PTHP COOLING COIL OUTLET NODE,Air,1
 Node,1196,THERMAL ZONE: UNIT_0505 PTHP COOLING COIL OUTLET NODE,Air,1
 Node,1197,THERMAL ZONE: UNIT_0506 PTHP COOLING COIL OUTLET NODE,Air,1
 Node,1198,THERMAL ZONE: UNIT_0507_3B PTHP COOLING COIL OUTLET NODE,Air,1
 Node,1199,THERMAL ZONE: UNIT_0508 PTHP COOLING COIL OUTLET NODE,Air,1
 Node,1200,THERMAL ZONE: UNIT_0509_2B PTHP COOLING COIL OUTLET NODE,Air,1
 Node,1201,THERMAL ZONE: UNIT_0510 PTHP COOLING COIL OUTLET NODE,Air,1
 Node,1202,THERMAL ZONE: UNIT_0511 PTHP COOLING COIL OUTLET NODE,Air,1
 Node,1203,THERMAL ZONE: UNIT_0512 PTHP COOLING COIL OUTLET NODE,Air,1
 Node,1204,THERMAL ZONE: UNIT_0513 PTHP COOLING COIL OUTLET NODE,Air,1
 Node,1205,THERMAL ZONE: UNIT_0514 PTHP COOLING COIL OUTLET NODE,Air,1
 Node,1206,THERMAL ZONE: UNIT_0515 PTHP COOLING COIL OUTLET NODE,Air,1
 Node,1207,THERMAL ZONE: UNIT_0516 PTHP COOLING COIL OUTLET NODE,Air,1
 Node,1208,THERMAL ZONE: UNIT_0517_4B PTHP COOLING COIL OUTLET NODE,Air,1
 Node,1209,THERMAL ZONE: UNIT_2101_4B PTHP COOLING COIL OUTLET NODE,Air,1
 Node,1210,THERMAL ZONE: UNIT_2102 PTHP COOLING COIL OUTLET NODE,Air,1
 Node,1211,THERMAL ZONE: UNIT_2103 PTHP COOLING COIL OUTLET NODE,Air,1
 Node,1212,THERMAL ZONE: UNIT_2104 PTHP COOLING COIL OUTLET NODE,Air,1
 Node,1213,THERMAL ZONE: UNIT_2105 PTHP COOLING COIL OUTLET NODE,Air,1
 Node,1214,THERMAL ZONE: UNIT_2106 PTHP COOLING COIL OUTLET NODE,Air,1
 Node,1215,THERMAL ZONE: UNIT_2107_3B PTHP COOLING COIL OUTLET NODE,Air,1
 Node,1216,THERMAL ZONE: UNIT_2108 PTHP COOLING COIL OUTLET NODE,Air,1
 Node,1217,THERMAL ZONE: UNIT_2109_2B PTHP COOLING COIL OUTLET NODE,Air,1
 Node,1218,THERMAL ZONE: UNIT_2110 PTHP COOLING COIL OUTLET NODE,Air,1
 Node,1219,THERMAL ZONE: UNIT_2111 PTHP COOLING COIL OUTLET NODE,Air,1
 Node,1220,THERMAL ZONE: UNIT_2112 PTHP COOLING COIL OUTLET NODE,Air,1
 Node,1221,THERMAL ZONE: UNIT_2113 PTHP COOLING COIL OUTLET NODE,Air,1
 Node,1222,THERMAL ZONE: UNIT_2114 PTHP COOLING COIL OUTLET NODE,Air,1
 Node,1223,THERMAL ZONE: UNIT_2115 PTHP COOLING COIL OUTLET NODE,Air,1
 Node,1224,THERMAL ZONE: UNIT_2116 PTHP COOLING COIL OUTLET NODE,Air,1
 Node,1225,THERMAL ZONE: UNIT_2117_4B PTHP COOLING COIL OUTLET NODE,Air,1
 Node,1226,THERMAL ZONE: XFMR_0201 PTHP COOLING COIL OUTLET NODE,Air,1
 Node,1227,THERMAL ZONE: XFMR_0401 PTHP COOLING COIL OUTLET NODE,Air,1
! ===============================================================
! Suspicious nodes have 0 references.  It is normal for some nodes, however.
! Listing nodes with 0 references (culled from previous list):
! <Suspicious Node>,<NodeNumber>,<Node Name>,<Node Fluid Type>,<# Times Node Referenced After Definition>
 Suspicious Node,237,NODE 28,Air,0
 Suspicious Node,238,NODE 75,Air,0
 Suspicious Node,239,NODE 201,Air,0
 Suspicious Node,240,NODE 171,Air,0
 Suspicious Node,241,NODE 101,Air,0
 Suspicious Node,242,NODE 76,Air,0
 Suspicious Node,243,NODE 50,Air,0
 Suspicious Node,244,NODE 118,Air,0
 Suspicious Node,245,NODE 14,Air,0
 Suspicious Node,246,NODE 62,Air,0
 Suspicious Node,247,NODE 198,Air,0
 Suspicious Node,248,NODE 160,Air,0
 Suspicious Node,249,NODE 102,Air,0
 Suspicious Node,250,NODE 105,Air,0
 Suspicious Node,251,NODE 33,Air,0
 Suspicious Node,252,NODE 106,Air,0
 Suspicious Node,253,NODE 137,Air,0
 Suspicious Node,254,NODE 91,Air,0
 Suspicious Node,255,NODE 124,Air,0
 Suspicious Node,256,NODE 135,Air,0
 Suspicious Node,257,NODE 100,Air,0
 Suspicious Node,258,NODE 92,Air,0
 Suspicious Node,259,NODE 5,Air,0
 Suspicious Node,260,NODE 126,Air,0
 Suspicious Node,261,NODE 127,Air,0
 Suspicious Node,262,NODE 129,Air,0
 Suspicious Node,263,NODE 130,Air,0
 Suspicious Node,264,NODE 131,Air,0
 Suspicious Node,265,NODE 132,Air,0
 Suspicious Node,266,NODE 128,Air,0
 Suspicious Node,267,NODE 123,Air,0
 Suspicious Node,268,NODE 120,Air,0
 Suspicious Node,269,NODE 117,Air,0
 Suspicious Node,270,NODE 110,Air,0
 Suspicious Node,271,NODE 116,Air,0
 Suspicious Node,272,NODE 115,Air,0
 Suspicious Node,273,NODE 114,Air,0
 Suspicious Node,274,NODE 113,Air,0
 Suspicious Node,275,NODE 112,Air,0
 Suspicious Node,276,NODE 111,Air,0
 Suspicious Node,277,NODE 22,Air,0
 Suspicious Node,278,NODE 42,Air,0
 Suspicious Node,279,NODE 41,Air,0
 Suspicious Node,280,NODE 21,Air,0
 Suspicious Node,281,NODE 38,Air,0
 Suspicious Node,282,NODE 23,Air,0
 Suspicious Node,283,NODE 37,Air,0
 Suspicious Node,284,NODE 34,Air,0
 Suspicious Node,285,NODE 3,Air,0
 Suspicious Node,286,NODE 24,Air,0
 Suspicious Node,287,NODE 27,Air,0
 Suspicious Node,288,NODE 20,Air,0
 Suspicious Node,289,NODE 29,Air,0
 Suspicious Node,290,NODE 31,Air,0
 Suspicious Node,291,NODE 44,Air,0
 Suspicious Node,292,NODE 36,Air,0
 Suspicious Node,293,NODE 45,Air,0
 Suspicious Node,294,NODE 51,Air,0
 Suspicious Node,295,NODE 67,Air,0
 Suspicious Node,296,NODE 19,Air,0
 Suspicious Node,297,NODE 39,Air,0
 Suspicious Node,298,NODE 69,Air,0
 Suspicious Node,299,NODE 35,Air,0
 Suspicious Node,300,NODE 49,Air,0
 Suspicious Node,301,NODE 7,Air,0
 Suspicious Node,302,NODE 32,Air,0
 Suspicious Node,303,NODE 56,Air,0
 Suspicious Node,304,NODE 57,Air,0
 Suspicious Node,305,NODE 60,Air,0
 Suspicious Node,306,NODE 65,Air,0
 Suspicious Node,307,NODE 10,Air,0
 Suspicious Node,308,NODE 55,Air,0
 Suspicious Node,309,NODE 30,Air,0
 Suspicious Node,310,NODE 74,Air,0
 Suspicious Node,311,NODE 63,Air,0
 Suspicious Node,312,NODE 188,Air,0
 Suspicious Node,313,NODE 200,Air,0
 Suspicious Node,314,NODE 215,Air,0
 Suspicious Node,315,NODE 203,Air,0
 Suspicious Node,316,NODE 206,Air,0
 Suspicious Node,317,NODE 199,Air,0
 Suspicious Node,318,NODE 208,Air,0
 Suspicious Node,319,NODE 191,Air,0
 Suspicious Node,320,NODE 210,Air,0
 Suspicious Node,321,NODE 213,Air,0
 Suspicious Node,322,NODE 211,Air,0
 Suspicious Node,323,NODE 217,Air,0
 Suspicious Node,324,NODE 196,Air,0
 Suspicious Node,325,NODE 212,Air,0
 Suspicious Node,326,NODE 216,Air,0
 Suspicious Node,327,NODE 207,Air,0
 Suspicious Node,328,NODE 202,Air,0
 Suspicious Node,329,NODE 168,Air,0
 Suspicious Node,330,NODE 165,Air,0
 Suspicious Node,331,NODE 170,Air,0
 Suspicious Node,332,NODE 145,Air,0
 Suspicious Node,333,NODE 146,Air,0
 Suspicious Node,334,NODE 172,Air,0
 Suspicious Node,335,NODE 150,Air,0
 Suspicious Node,336,NODE 166,Air,0
 Suspicious Node,337,NODE 159,Air,0
 Suspicious Node,338,NODE 158,Air,0
 Suspicious Node,339,NODE 157,Air,0
 Suspicious Node,340,NODE 156,Air,0
 Suspicious Node,341,NODE 155,Air,0
 Suspicious Node,342,NODE 154,Air,0
 Suspicious Node,343,NODE 149,Air,0
 Suspicious Node,344,NODE 153,Air,0
 Suspicious Node,345,NODE 152,Air,0
 Suspicious Node,346,NODE 122,Air,0
 Suspicious Node,347,NODE 189,Air,0
 Suspicious Node,348,THERMAL ZONE: BOH_0100 ZONE AIR NODE,Air,0
 Suspicious Node,350,THERMAL ZONE: BOH_0100 RETURN OUTLET,Air,0
 Suspicious Node,351,THERMAL ZONE: ELEC_0300 ZONE AIR NODE,Air,0
 Suspicious Node,353,THERMAL ZONE: ELEC_0300 RETURN OUTLET,Air,0
 Suspicious Node,354,THERMAL ZONE: ELEC_0400 ZONE AIR NODE,Air,0
 Suspicious Node,356,THERMAL ZONE: ELEC_0400 RETURN OUTLET,Air,0
 Suspicious Node,357,THERMAL ZONE: ELEV LOBBY_2300 ZONE AIR NODE,Air,0
 Suspicious Node,359,THERMAL ZONE: ELEV LOBBY_2300 RETURN OUTLET,Air,0
 Suspicious Node,360,THERMAL ZONE: ELEV LOBBY_P101 ZONE AIR NODE,Air,0
 Suspicious Node,362,THERMAL ZONE: ELEV LOBBY_P101 RETURN OUTLET,Air,0
 Suspicious Node,363,THERMAL ZONE: ELEV LOBBY_P200 ZONE AIR NODE,Air,0
 Suspicious Node,365,THERMAL ZONE: ELEV LOBBY_P200 RETURN OUTLET,Air,0
 Suspicious Node,366,THERMAL ZONE: ELEV_0101 ZONE AIR NODE,Air,0
 Suspicious Node,368,THERMAL ZONE: ELEV_0101 RETURN OUTLET,Air,0
 Suspicious Node,369,THERMAL ZONE: ELEV_0102 ZONE AIR NODE,Air,0
 Suspicious Node,371,THERMAL ZONE: ELEV_0102 RETURN OUTLET,Air,0
 Suspicious Node,372,THERMAL ZONE: ELEV_0201 ZONE AIR NODE,Air,0
 Suspicious Node,374,THERMAL ZONE: ELEV_0201 RETURN OUTLET,Air,0
 Suspicious Node,375,THERMAL ZONE: ELEV_0202 ZONE AIR NODE,Air,0
 Suspicious Node,377,THERMAL ZONE: ELEV_0202 RETURN OUTLET,Air,0
 Suspicious Node,378,THERMAL ZONE: ELEV_0301 ZONE AIR NODE,Air,0
 Suspicious Node,380,THERMAL ZONE: ELEV_0301 RETURN OUTLET,Air,0
 Suspicious Node,381,THERMAL ZONE: ELEV_0302 ZONE AIR NODE,Air,0
 Suspicious Node,383,THERMAL ZONE: ELEV_0302 RETURN OUTLET,Air,0
 Suspicious Node,384,THERMAL ZONE: ELEV_0401 ZONE AIR NODE,Air,0
 Suspicious Node,386,THERMAL ZONE: ELEV_0401 RETURN OUTLET,Air,0
 Suspicious Node,387,THERMAL ZONE: ELEV_0402 ZONE AIR NODE,Air,0
 Suspicious Node,389,THERMAL ZONE: ELEV_0402 RETURN OUTLET,Air,0
 Suspicious Node,390,THERMAL ZONE: ELEV_0501 ZONE AIR NODE,Air,0
 Suspicious Node,392,THERMAL ZONE: ELEV_0501 RETURN OUTLET,Air,0
 Suspicious Node,393,THERMAL ZONE: ELEV_0502 ZONE AIR NODE,Air,0
 Suspicious Node,395,THERMAL ZONE: ELEV_0502 RETURN OUTLET,Air,0
 Suspicious Node,396,THERMAL ZONE: ELEV_2101 ZONE AIR NODE,Air,0
 Suspicious Node,398,THERMAL ZONE: ELEV_2101 RETURN OUTLET,Air,0
 Suspicious Node,399,THERMAL ZONE: ELEV_2102 ZONE AIR NODE,Air,0
 Suspicious Node,401,THERMAL ZONE: ELEV_2102 RETURN OUTLET,Air,0
 Suspicious Node,402,THERMAL ZONE: ELEV_2301 ZONE AIR NODE,Air,0
 Suspicious Node,404,THERMAL ZONE: ELEV_2301 RETURN OUTLET,Air,0
 Suspicious Node,405,THERMAL ZONE: ELEV_2302 ZONE AIR NODE,Air,0
 Suspicious Node,407,THERMAL ZONE: ELEV_2302 RETURN OUTLET,Air,0
 Suspicious Node,408,THERMAL ZONE: ELEV_2303 ZONE AIR NODE,Air,0
 Suspicious Node,410,THERMAL ZONE: ELEV_2303 RETURN OUTLET,Air,0
 Suspicious Node,411,THERMAL ZONE: ELEV_2304 ZONE AIR NODE,Air,0
 Suspicious Node,413,THERMAL ZONE: ELEV_2304 RETURN OUTLET,Air,0
 Suspicious Node,414,THERMAL ZONE: ELEV_P101 ZONE AIR NODE,Air,0
 Suspicious Node,416,THERMAL ZONE: ELEV_P101 RETURN OUTLET,Air,0
 Suspicious Node,417,THERMAL ZONE: ELEV_P102 ZONE AIR NODE,Air,0
 Suspicious Node,419,THERMAL ZONE: ELEV_P102 RETURN OUTLET,Air,0
 Suspicious Node,420,THERMAL ZONE: ELEV_P201 ZONE AIR NODE,Air,0
 Suspicious Node,422,THERMAL ZONE: ELEV_P201 RETURN OUTLET,Air,0
 Suspicious Node,423,THERMAL ZONE: ELEV_P202 ZONE AIR NODE,Air,0
 Suspicious Node,425,THERMAL ZONE: ELEV_P202 RETURN OUTLET,Air,0
 Suspicious Node,426,THERMAL ZONE: MECH_0200 ZONE AIR NODE,Air,0
 Suspicious Node,428,THERMAL ZONE: MECH_0200 RETURN OUTLET,Air,0
 Suspicious Node,429,THERMAL ZONE: MECH_0300 ZONE AIR NODE,Air,0
 Suspicious Node,431,THERMAL ZONE: MECH_0300 RETURN OUTLET,Air,0
 Suspicious Node,432,THERMAL ZONE: MECH_0400 ZONE AIR NODE,Air,0
 Suspicious Node,434,THERMAL ZONE: MECH_0400 RETURN OUTLET,Air,0
 Suspicious Node,435,THERMAL ZONE: MECH_0500 ZONE AIR NODE,Air,0
 Suspicious Node,437,THERMAL ZONE: MECH_0500 RETURN OUTLET,Air,0
 Suspicious Node,438,THERMAL ZONE: MECH_2100 ZONE AIR NODE,Air,0
 Suspicious Node,440,THERMAL ZONE: MECH_2100 RETURN OUTLET,Air,0
 Suspicious Node,441,THERMAL ZONE: PACKAGE_0100 ZONE AIR NODE,Air,0
 Suspicious Node,443,THERMAL ZONE: PACKAGE_0100 RETURN OUTLET,Air,0
 Suspicious Node,444,THERMAL ZONE: RESTROOM_0100 ZONE AIR NODE,Air,0
 Suspicious Node,446,THERMAL ZONE: RESTROOM_0100 RETURN OUTLET,Air,0
 Suspicious Node,447,THERMAL ZONE: RESTROOM_2201 ZONE AIR NODE,Air,0
 Suspicious Node,449,THERMAL ZONE: RESTROOM_2201 RETURN OUTLET,Air,0
 Suspicious Node,450,THERMAL ZONE: RESTROOM_2202 ZONE AIR NODE,Air,0
 Suspicious Node,452,THERMAL ZONE: RESTROOM_2202 RETURN OUTLET,Air,0
 Suspicious Node,453,THERMAL ZONE: RETAIL STORAGE_0100 ZONE AIR NODE,Air,0
 Suspicious Node,455,THERMAL ZONE: RETAIL STORAGE_0100 RETURN OUTLET,Air,0
 Suspicious Node,456,THERMAL ZONE: RETAIL_0100 ZONE AIR NODE,Air,0
 Suspicious Node,458,THERMAL ZONE: RETAIL_0100 RETURN OUTLET,Air,0
 Suspicious Node,459,THERMAL ZONE: STAIR_0101 ZONE AIR NODE,Air,0
 Suspicious Node,461,THERMAL ZONE: STAIR_0101 RETURN OUTLET,Air,0
 Suspicious Node,462,THERMAL ZONE: STAIR_0102 ZONE AIR NODE,Air,0
 Suspicious Node,464,THERMAL ZONE: STAIR_0102 RETURN OUTLET,Air,0
 Suspicious Node,465,THERMAL ZONE: STAIR_0201 ZONE AIR NODE,Air,0
 Suspicious Node,467,THERMAL ZONE: STAIR_0201 RETURN OUTLET,Air,0
 Suspicious Node,468,THERMAL ZONE: STAIR_0202 ZONE AIR NODE,Air,0
 Suspicious Node,470,THERMAL ZONE: STAIR_0202 RETURN OUTLET,Air,0
 Suspicious Node,471,THERMAL ZONE: STAIR_0301 ZONE AIR NODE,Air,0
 Suspicious Node,473,THERMAL ZONE: STAIR_0301 RETURN OUTLET,Air,0
 Suspicious Node,474,THERMAL ZONE: STAIR_0302 ZONE AIR NODE,Air,0
 Suspicious Node,476,THERMAL ZONE: STAIR_0302 RETURN OUTLET,Air,0
 Suspicious Node,477,THERMAL ZONE: STAIR_0401 ZONE AIR NODE,Air,0
 Suspicious Node,479,THERMAL ZONE: STAIR_0401 RETURN OUTLET,Air,0
 Suspicious Node,480,THERMAL ZONE: STAIR_0402 ZONE AIR NODE,Air,0
 Suspicious Node,482,THERMAL ZONE: STAIR_0402 RETURN OUTLET,Air,0
 Suspicious Node,483,THERMAL ZONE: STAIR_0501 ZONE AIR NODE,Air,0
 Suspicious Node,485,THERMAL ZONE: STAIR_0501 RETURN OUTLET,Air,0
 Suspicious Node,486,THERMAL ZONE: STAIR_0502 ZONE AIR NODE,Air,0
 Suspicious Node,488,THERMAL ZONE: STAIR_0502 RETURN OUTLET,Air,0
 Suspicious Node,489,THERMAL ZONE: STAIR_2101 ZONE AIR NODE,Air,0
 Suspicious Node,491,THERMAL ZONE: STAIR_2101 RETURN OUTLET,Air,0
 Suspicious Node,492,THERMAL ZONE: STAIR_2102 ZONE AIR NODE,Air,0
 Suspicious Node,494,THERMAL ZONE: STAIR_2102 RETURN OUTLET,Air,0
 Suspicious Node,495,THERMAL ZONE: STAIR_2201 ZONE AIR NODE,Air,0
 Suspicious Node,497,THERMAL ZONE: STAIR_2201 RETURN OUTLET,Air,0
 Suspicious Node,498,THERMAL ZONE: STAIR_2202 ZONE AIR NODE,Air,0
 Suspicious Node,500,THERMAL ZONE: STAIR_2202 RETURN OUTLET,Air,0
 Suspicious Node,501,THERMAL ZONE: STAIR_2301 ZONE AIR NODE,Air,0
 Suspicious Node,503,THERMAL ZONE: STAIR_2301 RETURN OUTLET,Air,0
 Suspicious Node,504,THERMAL ZONE: STAIR_2302 ZONE AIR NODE,Air,0
 Suspicious Node,506,THERMAL ZONE: STAIR_2302 RETURN OUTLET,Air,0
 Suspicious Node,507,THERMAL ZONE: STAIR_P101 ZONE AIR NODE,Air,0
 Suspicious Node,509,THERMAL ZONE: STAIR_P101 RETURN OUTLET,Air,0
 Suspicious Node,510,THERMAL ZONE: STAIR_P102 ZONE AIR NODE,Air,0
 Suspicious Node,512,THERMAL ZONE: STAIR_P102 RETURN OUTLET,Air,0
 Suspicious Node,513,THERMAL ZONE: STAIR_P201 ZONE AIR NODE,Air,0
 Suspicious Node,515,THERMAL ZONE: STAIR_P201 RETURN OUTLET,Air,0
 Suspicious Node,516,THERMAL ZONE: STAIR_P202 ZONE AIR NODE,Air,0
 Suspicious Node,518,THERMAL ZONE: STAIR_P202 RETURN OUTLET,Air,0
 Suspicious Node,519,THERMAL ZONE: STOR_0100 ZONE AIR NODE,Air,0
 Suspicious Node,521,THERMAL ZONE: STOR_0100 RETURN OUTLET,Air,0
 Suspicious Node,522,THERMAL ZONE: STOR_0200 ZONE AIR NODE,Air,0
 Suspicious Node,524,THERMAL ZONE: STOR_0200 RETURN OUTLET,Air,0
 Suspicious Node,525,THERMAL ZONE: STOR_0300 ZONE AIR NODE,Air,0
 Suspicious Node,527,THERMAL ZONE: STOR_0300 RETURN OUTLET,Air,0
 Suspicious Node,528,THERMAL ZONE: STOR_0400 ZONE AIR NODE,Air,0
 Suspicious Node,530,THERMAL ZONE: STOR_0400 RETURN OUTLET,Air,0
 Suspicious Node,531,THERMAL ZONE: STOR_0500 ZONE AIR NODE,Air,0
 Suspicious Node,533,THERMAL ZONE: STOR_0500 RETURN OUTLET,Air,0
 Suspicious Node,534,THERMAL ZONE: STOR_2100 ZONE AIR NODE,Air,0
 Suspicious Node,536,THERMAL ZONE: STOR_2100 RETURN OUTLET,Air,0
 Suspicious Node,537,THERMAL ZONE: STOR_P100 ZONE AIR NODE,Air,0
 Suspicious Node,539,THERMAL ZONE: STOR_P100 RETURN OUTLET,Air,0
 Suspicious Node,540,THERMAL ZONE: STOR_P200 ZONE AIR NODE,Air,0
 Suspicious Node,542,THERMAL ZONE: STOR_P200 RETURN OUTLET,Air,0
 Suspicious Node,543,THERMAL ZONE: TRASH_0200 ZONE AIR NODE,Air,0
 Suspicious Node,545,THERMAL ZONE: TRASH_0200 RETURN OUTLET,Air,0
 Suspicious Node,546,THERMAL ZONE: TRASH_0300 ZONE AIR NODE,Air,0
 Suspicious Node,548,THERMAL ZONE: TRASH_0300 RETURN OUTLET,Air,0
 Suspicious Node,549,THERMAL ZONE: TRASH_0400 ZONE AIR NODE,Air,0
 Suspicious Node,551,THERMAL ZONE: TRASH_0400 RETURN OUTLET,Air,0
 Suspicious Node,552,THERMAL ZONE: TRASH_0500 ZONE AIR NODE,Air,0
 Suspicious Node,554,THERMAL ZONE: TRASH_0500 RETURN OUTLET,Air,0
 Suspicious Node,555,THERMAL ZONE: TRASH_2100 ZONE AIR NODE,Air,0
 Suspicious Node,557,THERMAL ZONE: TRASH_2100 RETURN OUTLET,Air,0
 Suspicious Node,558,THERMAL ZONE: TRASH_2200 ZONE AIR NODE,Air,0
 Suspicious Node,560,THERMAL ZONE: TRASH_2200 RETURN OUTLET,Air,0
 Suspicious Node,672,MODEL OUTDOOR AIR NODE,Air,0
 Suspicious Node,674,THERMAL ZONE: AMEN_0300 PTHP RELIEF AIR NODE,Air,0
 Suspicious Node,676,THERMAL ZONE: AMEN_0400 PTHP RELIEF AIR NODE,Air,0
 Suspicious Node,678,THERMAL ZONE: AMEN_0501 PTHP RELIEF AIR NODE,Air,0
 Suspicious Node,680,THERMAL ZONE: AMEN_2100 PTHP RELIEF AIR NODE,Air,0
 Suspicious Node,682,THERMAL ZONE: AMEN_2200 PTHP RELIEF AIR NODE,Air,0
 Suspicious Node,684,THERMAL ZONE: AMEN_2300 PTHP RELIEF AIR NODE,Air,0
 Suspicious Node,686,THERMAL ZONE: CORR_0100 PTHP RELIEF AIR NODE,Air,0
 Suspicious Node,688,THERMAL ZONE: CORR_0200 PTHP RELIEF AIR NODE,Air,0
 Suspicious Node,690,THERMAL ZONE: CORR_0300 PTHP RELIEF AIR NODE,Air,0
 Suspicious Node,692,THERMAL ZONE: CORR_0400 PTHP RELIEF AIR NODE,Air,0
 Suspicious Node,694,THERMAL ZONE: CORR_0500 PTHP RELIEF AIR NODE,Air,0
 Suspicious Node,696,THERMAL ZONE: CORR_2100 PTHP RELIEF AIR NODE,Air,0
 Suspicious Node,698,THERMAL ZONE: CORR_2300 PTHP RELIEF AIR NODE,Air,0
 Suspicious Node,700,THERMAL ZONE: CORR_2301 PTHP RELIEF AIR NODE,Air,0
 Suspicious Node,702,THERMAL ZONE: ELEV CONTROL_2301 PTHP RELIEF AIR NODE,Air,0
 Suspicious Node,704,THERMAL ZONE: ELEV CONTROL_2302 PTHP RELIEF AIR NODE,Air,0
 Suspicious Node,706,THERMAL ZONE: FCC_0100 PTHP RELIEF AIR NODE,Air,0
 Suspicious Node,708,THERMAL ZONE: FITNESS_2200 PTHP RELIEF AIR NODE,Air,0
 Suspicious Node,710,THERMAL ZONE: LEASING_0100 PTHP RELIEF AIR NODE,Air,0
 Suspicious Node,712,THERMAL ZONE: LOBBY_MAIL_0100 PTHP RELIEF AIR NODE,Air,0
 Suspicious Node,714,THERMAL ZONE: LOUNGE_2300 PTHP RELIEF AIR NODE,Air,0
 Suspicious Node,716,THERMAL ZONE: LOUNGE_2301 PTHP RELIEF AIR NODE,Air,0
 Suspicious Node,718,THERMAL ZONE: UNIT_0201_4B PTHP RELIEF AIR NODE,Air,0
 Suspicious Node,720,THERMAL ZONE: UNIT_0202 PTHP RELIEF AIR NODE,Air,0
 Suspicious Node,722,THERMAL ZONE: UNIT_0203 PTHP RELIEF AIR NODE,Air,0
 Suspicious Node,724,THERMAL ZONE: UNIT_0204 PTHP RELIEF AIR NODE,Air,0
 Suspicious Node,726,THERMAL ZONE: UNIT_0205 PTHP RELIEF AIR NODE,Air,0
 Suspicious Node,728,THERMAL ZONE: UNIT_0206 PTHP RELIEF AIR NODE,Air,0
[...]
 Non-Parent Node Connection,NODE 367,COIL:HEATING:ELECTRIC,COIL HEATING ELECTRIC 75,Outlet,1
 Non-Parent Node Connection,THERMAL ZONE: UNIT_0501_4B PTHP FAN OUTLET NODE,COIL:HEATING:ELECTRIC,COIL HEATING ELECTRIC 76,Inlet,1
 Non-Parent Node Connection,NODE 369,COIL:HEATING:ELECTRIC,COIL HEATING ELECTRIC 76,Outlet,1
 Non-Parent Node Connection,THERMAL ZONE: UNIT_0502 PTHP FAN OUTLET NODE,COIL:HEATING:ELECTRIC,COIL HEATING ELECTRIC 77,Inlet,1
 Non-Parent Node Connection,NODE 371,COIL:HEATING:ELECTRIC,COIL HEATING ELECTRIC 77,Outlet,1
 Non-Parent Node Connection,THERMAL ZONE: UNIT_0503 PTHP FAN OUTLET NODE,COIL:HEATING:ELECTRIC,COIL HEATING ELECTRIC 78,Inlet,1
 Non-Parent Node Connection,NODE 373,COIL:HEATING:ELECTRIC,COIL HEATING ELECTRIC 78,Outlet,1
 Non-Parent Node Connection,THERMAL ZONE: UNIT_0504 PTHP FAN OUTLET NODE,COIL:HEATING:ELECTRIC,COIL HEATING ELECTRIC 79,Inlet,1
 Non-Parent Node Connection,NODE 375,COIL:HEATING:ELECTRIC,COIL HEATING ELECTRIC 79,Outlet,1
 Non-Parent Node Connection,THERMAL ZONE: UNIT_0505 PTHP FAN OUTLET NODE,COIL:HEATING:ELECTRIC,COIL HEATING ELECTRIC 80,Inlet,1
 Non-Parent Node Connection,NODE 377,COIL:HEATING:ELECTRIC,COIL HEATING ELECTRIC 80,Outlet,1
 Non-Parent Node Connection,THERMAL ZONE: UNIT_0506 PTHP FAN OUTLET NODE,COIL:HEATING:ELECTRIC,COIL HEATING ELECTRIC 81,Inlet,1
 Non-Parent Node Connection,NODE 379,COIL:HEATING:ELECTRIC,COIL HEATING ELECTRIC 81,Outlet,1
 Non-Parent Node Connection,THERMAL ZONE: UNIT_0507_3B PTHP FAN OUTLET NODE,COIL:HEATING:ELECTRIC,COIL HEATING ELECTRIC 82,Inlet,1
 Non-Parent Node Connection,NODE 381,COIL:HEATING:ELECTRIC,COIL HEATING ELECTRIC 82,Outlet,1
 Non-Parent Node Connection,THERMAL ZONE: UNIT_0508 PTHP FAN OUTLET NODE,COIL:HEATING:ELECTRIC,COIL HEATING ELECTRIC 83,Inlet,1
 Non-Parent Node Connection,NODE 383,COIL:HEATING:ELECTRIC,COIL HEATING ELECTRIC 83,Outlet,1
 Non-Parent Node Connection,THERMAL ZONE: UNIT_0509_2B PTHP FAN OUTLET NODE,COIL:HEATING:ELECTRIC,COIL HEATING ELECTRIC 84,Inlet,1
 Non-Parent Node Connection,NODE 385,COIL:HEATING:ELECTRIC,COIL HEATING ELECTRIC 84,Outlet,1
 Non-Parent Node Connection,THERMAL ZONE: UNIT_0510 PTHP FAN OUTLET NODE,COIL:HEATING:ELECTRIC,COIL HEATING ELECTRIC 85,Inlet,1
 Non-Parent Node Connection,NODE 387,COIL:HEATING:ELECTRIC,COIL HEATING ELECTRIC 85,Outlet,1
 Non-Parent Node Connection,THERMAL ZONE: UNIT_0511 PTHP FAN OUTLET NODE,COIL:HEATING:ELECTRIC,COIL HEATING ELECTRIC 86,Inlet,1
 Non-Parent Node Connection,NODE 389,COIL:HEATING:ELECTRIC,COIL HEATING ELECTRIC 86,Outlet,1
 Non-Parent Node Connection,THERMAL ZONE: UNIT_0512 PTHP FAN OUTLET NODE,COIL:HEATING:ELECTRIC,COIL HEATING ELECTRIC 87,Inlet,1
 Non-Parent Node Connection,NODE 391,COIL:HEATING:ELECTRIC,COIL HEATING ELECTRIC 87,Outlet,1
 Non-Parent Node Connection,THERMAL ZONE: UNIT_0513 PTHP FAN OUTLET NODE,COIL:HEATING:ELECTRIC,COIL HEATING ELECTRIC 88,Inlet,1
 Non-Parent Node Connection,NODE 393,COIL:HEATING:ELECTRIC,COIL HEATING ELECTRIC 88,Outlet,1
 Non-Parent Node Connection,THERMAL ZONE: UNIT_0514 PTHP FAN OUTLET NODE,COIL:HEATING:ELECTRIC,COIL HEATING ELECTRIC 89,Inlet,1
 Non-Parent Node Connection,NODE 395,COIL:HEATING:ELECTRIC,COIL HEATING ELECTRIC 89,Outlet,1
 Non-Parent Node Connection,THERMAL ZONE: UNIT_0515 PTHP FAN OUTLET NODE,COIL:HEATING:ELECTRIC,COIL HEATING ELECTRIC 90,Inlet,1
 Non-Parent Node Connection,NODE 397,COIL:HEATING:ELECTRIC,COIL HEATING ELECTRIC 90,Outlet,1
 Non-Parent Node Connection,THERMAL ZONE: UNIT_0516 PTHP FAN OUTLET NODE,COIL:HEATING:ELECTRIC,COIL HEATING ELECTRIC 91,Inlet,1
 Non-Parent Node Connection,NODE 399,COIL:HEATING:ELECTRIC,COIL HEATING ELECTRIC 91,Outlet,1
 Non-Parent Node Connection,THERMAL ZONE: UNIT_0517_4B PTHP FAN OUTLET NODE,COIL:HEATING:ELECTRIC,COIL HEATING ELECTRIC 92,Inlet,1
 Non-Parent Node Connection,NODE 401,COIL:HEATING:ELECTRIC,COIL HEATING ELECTRIC 92,Outlet,1
 Non-Parent Node Connection,THERMAL ZONE: UNIT_2101_4B PTHP FAN OUTLET NODE,COIL:HEATING:ELECTRIC,COIL HEATING ELECTRIC 93,Inlet,1
 Non-Parent Node Connection,NODE 403,COIL:HEATING:ELECTRIC,COIL HEATING ELECTRIC 93,Outlet,1
 Non-Parent Node Connection,THERMAL ZONE: UNIT_2102 PTHP FAN OUTLET NODE,COIL:HEATING:ELECTRIC,COIL HEATING ELECTRIC 94,Inlet,1
 Non-Parent Node Connection,NODE 405,COIL:HEATING:ELECTRIC,COIL HEATING ELECTRIC 94,Outlet,1
 Non-Parent Node Connection,THERMAL ZONE: UNIT_2103 PTHP FAN OUTLET NODE,COIL:HEATING:ELECTRIC,COIL HEATING ELECTRIC 95,Inlet,1
 Non-Parent Node Connection,NODE 407,COIL:HEATING:ELECTRIC,COIL HEATING ELECTRIC 95,Outlet,1
 Non-Parent Node Connection,THERMAL ZONE: UNIT_2104 PTHP FAN OUTLET NODE,COIL:HEATING:ELECTRIC,COIL HEATING ELECTRIC 96,Inlet,1
 Non-Parent Node Connection,NODE 409,COIL:HEATING:ELECTRIC,COIL HEATING ELECTRIC 96,Outlet,1
 Non-Parent Node Connection,THERMAL ZONE: UNIT_2105 PTHP FAN OUTLET NODE,COIL:HEATING:ELECTRIC,COIL HEATING ELECTRIC 97,Inlet,1
 Non-Parent Node Connection,NODE 411,COIL:HEATING:ELECTRIC,COIL HEATING ELECTRIC 97,Outlet,1
 Non-Parent Node Connection,THERMAL ZONE: UNIT_2106 PTHP FAN OUTLET NODE,COIL:HEATING:ELECTRIC,COIL HEATING ELECTRIC 98,Inlet,1
 Non-Parent Node Connection,NODE 413,COIL:HEATING:ELECTRIC,COIL HEATING ELECTRIC 98,Outlet,1
 Non-Parent Node Connection,THERMAL ZONE: UNIT_2107_3B PTHP FAN OUTLET NODE,COIL:HEATING:ELECTRIC,COIL HEATING ELECTRIC 99,Inlet,1
 Non-Parent Node Connection,NODE 415,COIL:HEATING:ELECTRIC,COIL HEATING ELECTRIC 99,Outlet,1
 Non-Parent Node Connection,THERMAL ZONE: UNIT_2108 PTHP FAN OUTLET NODE,COIL:HEATING:ELECTRIC,COIL HEATING ELECTRIC 100,Inlet,1
 Non-Parent Node Connection,NODE 417,COIL:HEATING:ELECTRIC,COIL HEATING ELECTRIC 100,Outlet,1
 Non-Parent Node Connection,THERMAL ZONE: UNIT_2109_2B PTHP FAN OUTLET NODE,COIL:HEATING:ELECTRIC,COIL HEATING ELECTRIC 101,Inlet,1
 Non-Parent Node Connection,NODE 419,COIL:HEATING:ELECTRIC,COIL HEATING ELECTRIC 101,Outlet,1
 Non-Parent Node Connection,THERMAL ZONE: UNIT_2110 PTHP FAN OUTLET NODE,COIL:HEATING:ELECTRIC,COIL HEATING ELECTRIC 102,Inlet,1
 Non-Parent Node Connection,NODE 421,COIL:HEATING:ELECTRIC,COIL HEATING ELECTRIC 102,Outlet,1
 Non-Parent Node Connection,THERMAL ZONE: UNIT_2111 PTHP FAN OUTLET NODE,COIL:HEATING:ELECTRIC,COIL HEATING ELECTRIC 103,Inlet,1
 Non-Parent Node Connection,NODE 423,COIL:HEATING:ELECTRIC,COIL HEATING ELECTRIC 103,Outlet,1
 Non-Parent Node Connection,THERMAL ZONE: UNIT_2112 PTHP FAN OUTLET NODE,COIL:HEATING:ELECTRIC,COIL HEATING ELECTRIC 104,Inlet,1
 Non-Parent Node Connection,NODE 425,COIL:HEATING:ELECTRIC,COIL HEATING ELECTRIC 104,Outlet,1
 Non-Parent Node Connection,THERMAL ZONE: UNIT_2113 PTHP FAN OUTLET NODE,COIL:HEATING:ELECTRIC,COIL HEATING ELECTRIC 105,Inlet,1
 Non-Parent Node Connection,NODE 427,COIL:HEATING:ELECTRIC,COIL HEATING ELECTRIC 105,Outlet,1
 Non-Parent Node Connection,THERMAL ZONE: UNIT_2114 PTHP FAN OUTLET NODE,COIL:HEATING:ELECTRIC,COIL HEATING ELECTRIC 106,Inlet,1
 Non-Parent Node Connection,NODE 429,COIL:HEATING:ELECTRIC,COIL HEATING ELECTRIC 106,Outlet,1
 Non-Parent Node Connection,THERMAL ZONE: UNIT_2115 PTHP FAN OUTLET NODE,COIL:HEATING:ELECTRIC,COIL HEATING ELECTRIC 107,Inlet,1
 Non-Parent Node Connection,NODE 431,COIL:HEATING:ELECTRIC,COIL HEATING ELECTRIC 107,Outlet,1
 Non-Parent Node Connection,THERMAL ZONE: UNIT_2116 PTHP FAN OUTLET NODE,COIL:HEATING:ELECTRIC,COIL HEATING ELECTRIC 108,Inlet,1
 Non-Parent Node Connection,NODE 433,COIL:HEATING:ELECTRIC,COIL HEATING ELECTRIC 108,Outlet,1
 Non-Parent Node Connection,THERMAL ZONE: UNIT_2117_4B PTHP FAN OUTLET NODE,COIL:HEATING:ELECTRIC,COIL HEATING ELECTRIC 109,Inlet,1
 Non-Parent Node Connection,NODE 435,COIL:HEATING:ELECTRIC,COIL HEATING ELECTRIC 109,Outlet,1
 Non-Parent Node Connection,THERMAL ZONE: XFMR_0201 PTHP FAN OUTLET NODE,COIL:HEATING:ELECTRIC,COIL HEATING ELECTRIC 110,Inlet,1
 Non-Parent Node Connection,NODE 437,COIL:HEATING:ELECTRIC,COIL HEATING ELECTRIC 110,Outlet,1
 Non-Parent Node Connection,THERMAL ZONE: XFMR_0401 PTHP FAN OUTLET NODE,COIL:HEATING:ELECTRIC,COIL HEATING ELECTRIC 111,Inlet,1
 Non-Parent Node Connection,NODE 439,COIL:HEATING:ELECTRIC,COIL HEATING ELECTRIC 111,Outlet,1
 Non-Parent Node Connection,THERMAL ZONE: BOH_0100 IDEAL LOADS SUPPLY INLET,ZONEHVAC:IDEALLOADSAIRSYSTEM,THERMAL ZONE: BOH_0100 IDEAL LOADS AIR SYSTEM,Outlet,1
 Non-Parent Node Connection,THERMAL ZONE: ELEC_0300 IDEAL LOADS SUPPLY INLET,ZONEHVAC:IDEALLOADSAIRSYSTEM,THERMAL ZONE: ELEC_0300 IDEAL LOADS AIR SYSTEM,Outlet,1
 Non-Parent Node Connection,THERMAL ZONE: ELEC_0400 IDEAL LOADS SUPPLY INLET,ZONEHVAC:IDEALLOADSAIRSYSTEM,THERMAL ZONE: ELEC_0400 IDEAL LOADS AIR SYSTEM,Outlet,1
 Non-Parent Node Connection,THERMAL ZONE: ELEV LOBBY_2300 IDEAL LOADS SUPPLY INLET,ZONEHVAC:IDEALLOADSAIRSYSTEM,THERMAL ZONE: ELEV LOBBY_2300 IDEAL LOADS AIR SYSTEM,Outlet,1
 Non-Parent Node Connection,THERMAL ZONE: ELEV LOBBY_P101 IDEAL LOADS SUPPLY INLET,ZONEHVAC:IDEALLOADSAIRSYSTEM,THERMAL ZONE: ELEV LOBBY_P101 IDEAL LOADS AIR SYSTEM,Outlet,1
 Non-Parent Node Connection,THERMAL ZONE: ELEV LOBBY_P200 IDEAL LOADS SUPPLY INLET,ZONEHVAC:IDEALLOADSAIRSYSTEM,THERMAL ZONE: ELEV LOBBY_P200 IDEAL LOADS AIR SYSTEM,Outlet,1
 Non-Parent Node Connection,THERMAL ZONE: ELEV_0101 IDEAL LOADS SUPPLY INLET,ZONEHVAC:IDEALLOADSAIRSYSTEM,THERMAL ZONE: ELEV_0101 IDEAL LOADS AIR SYSTEM,Outlet,1
 Non-Parent Node Connection,THERMAL ZONE: ELEV_0102 IDEAL LOADS SUPPLY INLET,ZONEHVAC:IDEALLOADSAIRSYSTEM,THERMAL ZONE: ELEV_0102 IDEAL LOADS AIR SYSTEM,Outlet,1
 Non-Parent Node Connection,THERMAL ZONE: ELEV_0201 IDEAL LOADS SUPPLY INLET,ZONEHVAC:IDEALLOADSAIRSYSTEM,THERMAL ZONE: ELEV_0201 IDEAL LOADS AIR SYSTEM,Outlet,1
 Non-Parent Node Connection,THERMAL ZONE: ELEV_0202 IDEAL LOADS SUPPLY INLET,ZONEHVAC:IDEALLOADSAIRSYSTEM,THERMAL ZONE: ELEV_0202 IDEAL LOADS AIR SYSTEM,Outlet,1
 Non-Parent Node Connection,THERMAL ZONE: ELEV_0301 IDEAL LOADS SUPPLY INLET,ZONEHVAC:IDEALLOADSAIRSYSTEM,THERMAL ZONE: ELEV_0301 IDEAL LOADS AIR SYSTEM,Outlet,1
 Non-Parent Node Connection,THERMAL ZONE: ELEV_0302 IDEAL LOADS SUPPLY INLET,ZONEHVAC:IDEALLOADSAIRSYSTEM,THERMAL ZONE: ELEV_0302 IDEAL LOADS AIR SYSTEM,Outlet,1
 Non-Parent Node Connection,THERMAL ZONE: ELEV_0401 IDEAL LOADS SUPPLY INLET,ZONEHVAC:IDEALLOADSAIRSYSTEM,THERMAL ZONE: ELEV_0401 IDEAL LOADS AIR SYSTEM,Outlet,1
 Non-Parent Node Connection,THERMAL ZONE: ELEV_0402 IDEAL LOADS SUPPLY INLET,ZONEHVAC:IDEALLOADSAIRSYSTEM,THERMAL ZONE: ELEV_0402 IDEAL LOADS AIR SYSTEM,Outlet,1
 Non-Parent Node Connection,THERMAL ZONE: ELEV_0501 IDEAL LOADS SUPPLY INLET,ZONEHVAC:IDEALLOADSAIRSYSTEM,THERMAL ZONE: ELEV_0501 IDEAL LOADS AIR SYSTEM,Outlet,1
 Non-Parent Node Connection,THERMAL ZONE: ELEV_0502 IDEAL LOADS SUPPLY INLET,ZONEHVAC:IDEALLOADSAIRSYSTEM,THERMAL ZONE: ELEV_0502 IDEAL LOADS AIR SYSTEM,Outlet,1
 Non-Parent Node Connection,THERMAL ZONE: ELEV_2101 IDEAL LOADS SUPPLY INLET,ZONEHVAC:IDEALLOADSAIRSYSTEM,THERMAL ZONE: ELEV_2101 IDEAL LOADS AIR SYSTEM,Outlet,1
 Non-Parent Node Connection,THERMAL ZONE: ELEV_2102 IDEAL LOADS SUPPLY INLET,ZONEHVAC:IDEALLOADSAIRSYSTEM,THERMAL ZONE: ELEV_2102 IDEAL LOADS AIR SYSTEM,Outlet,1
 Non-Parent Node Connection,THERMAL ZONE: ELEV_2301 IDEAL LOADS SUPPLY INLET,ZONEHVAC:IDEALLOADSAIRSYSTEM,THERMAL ZONE: ELEV_2301 IDEAL LOADS AIR SYSTEM,Outlet,1
 Non-Parent Node Connection,THERMAL ZONE: ELEV_2302 IDEAL LOADS SUPPLY INLET,ZONEHVAC:IDEALLOADSAIRSYSTEM,THERMAL ZONE: ELEV_2302 IDEAL LOADS AIR SYSTEM,Outlet,1
 Non-Parent Node Connection,THERMAL ZONE: ELEV_2303 IDEAL LOADS SUPPLY INLET,ZONEHVAC:IDEALLOADSAIRSYSTEM,THERMAL ZONE: ELEV_2303 IDEAL LOADS AIR SYSTEM,Outlet,1
 Non-Parent Node Connection,THERMAL ZONE: ELEV_2304 IDEAL LOADS SUPPLY INLET,ZONEHVAC:IDEALLOADSAIRSYSTEM,THERMAL ZONE: ELEV_2304 IDEAL LOADS AIR SYSTEM,Outlet,1
 Non-Parent Node Connection,THERMAL ZONE: ELEV_P101 IDEAL LOADS SUPPLY INLET,ZONEHVAC:IDEALLOADSAIRSYSTEM,THERMAL ZONE: ELEV_P101 IDEAL LOADS AIR SYSTEM,Outlet,1
 Non-Parent Node Connection,THERMAL ZONE: ELEV_P102 IDEAL LOADS SUPPLY INLET,ZONEHVAC:IDEALLOADSAIRSYSTEM,THERMAL ZONE: ELEV_P102 IDEAL LOADS AIR SYSTEM,Outlet,1
 Non-Parent Node Connection,THERMAL ZONE: ELEV_P201 IDEAL LOADS SUPPLY INLET,ZONEHVAC:IDEALLOADSAIRSYSTEM,THERMAL ZONE: ELEV_P201 IDEAL LOADS AIR SYSTEM,Outlet,1
 Non-Parent Node Connection,THERMAL ZONE: ELEV_P202 IDEAL LOADS SUPPLY INLET,ZONEHVAC:IDEALLOADSAIRSYSTEM,THERMAL ZONE: ELEV_P202 IDEAL LOADS AIR SYSTEM,Outlet,1
 Non-Parent Node Connection,THERMAL ZONE: MECH_0200 IDEAL LOADS SUPPLY INLET,ZONEHVAC:IDEALLOADSAIRSYSTEM,THERMAL ZONE: MECH_0200 IDEAL LOADS AIR SYSTEM,Outlet,1
 Non-Parent Node Connection,THERMAL ZONE: MECH_0300 IDEAL LOADS SUPPLY INLET,ZONEHVAC:IDEALLOADSAIRSYSTEM,THERMAL ZONE: MECH_0300 IDEAL LOADS AIR SYSTEM,Outlet,1
 Non-Parent Node Connection,THERMAL ZONE: MECH_0400 IDEAL LOADS SUPPLY INLET,ZONEHVAC:IDEALLOADSAIRSYSTEM,THERMAL ZONE: MECH_0400 IDEAL LOADS AIR SYSTEM,Outlet,1
 Non-Parent Node Connection,THERMAL ZONE: MECH_0500 IDEAL LOADS SUPPLY INLET,ZONEHVAC:IDEALLOADSAIRSYSTEM,THERMAL ZONE: MECH_0500 IDEAL LOADS AIR SYSTEM,Outlet,1
 Non-Parent Node Connection,THERMAL ZONE: MECH_2100 IDEAL LOADS SUPPLY INLET,ZONEHVAC:IDEALLOADSAIRSYSTEM,THERMAL ZONE: MECH_2100 IDEAL LOADS AIR SYSTEM,Outlet,1
 Non-Parent Node Connection,THERMAL ZONE: PACKAGE_0100 IDEAL LOADS SUPPLY INLET,ZONEHVAC:IDEALLOADSAIRSYSTEM,THERMAL ZONE: PACKAGE_0100 IDEAL LOADS AIR SYSTEM,Outlet,1
 Non-Parent Node Connection,THERMAL ZONE: RESTROOM_0100 IDEAL LOADS SUPPLY INLET,ZONEHVAC:IDEALLOADSAIRSYSTEM,THERMAL ZONE: RESTROOM_0100 IDEAL LOADS AIR SYSTEM,Outlet,1
 Non-Parent Node Connection,THERMAL ZONE: RESTROOM_2201 IDEAL LOADS SUPPLY INLET,ZONEHVAC:IDEALLOADSAIRSYSTEM,THERMAL ZONE: RESTROOM_2201 IDEAL LOADS AIR SYSTEM,Outlet,1
 Non-Parent Node Connection,THERMAL ZONE: RESTROOM_2202 IDEAL LOADS SUPPLY INLET,ZONEHVAC:IDEALLOADSAIRSYSTEM,THERMAL ZONE: RESTROOM_2202 IDEAL LOADS AIR SYSTEM,Outlet,1
 Non-Parent Node Connection,THERMAL ZONE: RETAIL STORAGE_0100 IDEAL LOADS SUPPLY INLET,ZONEHVAC:IDEALLOADSAIRSYSTEM,THERMAL ZONE: RETAIL STORAGE_0100 IDEAL LOADS AIR SYSTEM,Outlet,1
 Non-Parent Node Connection,THERMAL ZONE: RETAIL_0100 IDEAL LOADS SUPPLY INLET,ZONEHVAC:IDEALLOADSAIRSYSTEM,THERMAL ZONE: RETAIL_0100 IDEAL LOADS AIR SYSTEM,Outlet,1
 Non-Parent Node Connection,THERMAL ZONE: STAIR_0101 IDEAL LOADS SUPPLY INLET,ZONEHVAC:IDEALLOADSAIRSYSTEM,THERMAL ZONE: STAIR_0101 IDEAL LOADS AIR SYSTEM,Outlet,1
 Non-Parent Node Connection,THERMAL ZONE: STAIR_0102 IDEAL LOADS SUPPLY INLET,ZONEHVAC:IDEALLOADSAIRSYSTEM,THERMAL ZONE: STAIR_0102 IDEAL LOADS AIR SYSTEM,Outlet,1
 Non-Parent Node Connection,THERMAL ZONE: STAIR_0201 IDEAL LOADS SUPPLY INLET,ZONEHVAC:IDEALLOADSAIRSYSTEM,THERMAL ZONE: STAIR_0201 IDEAL LOADS AIR SYSTEM,Outlet,1
 Non-Parent Node Connection,THERMAL ZONE: STAIR_0202 IDEAL LOADS SUPPLY INLET,ZONEHVAC:IDEALLOADSAIRSYSTEM,THERMAL ZONE: STAIR_0202 IDEAL LOADS AIR SYSTEM,Outlet,1
 Non-Parent Node Connection,THERMAL ZONE: STAIR_0301 IDEAL LOADS SUPPLY INLET,ZONEHVAC:IDEALLOADSAIRSYSTEM,THERMAL ZONE: STAIR_0301 IDEAL LOADS AIR SYSTEM,Outlet,1
 Non-Parent Node Connection,THERMAL ZONE: STAIR_0302 IDEAL LOADS SUPPLY INLET,ZONEHVAC:IDEALLOADSAIRSYSTEM,THERMAL ZONE: STAIR_0302 IDEAL LOADS AIR SYSTEM,Outlet,1
 Non-Parent Node Connection,THERMAL ZONE: STAIR_0401 IDEAL LOADS SUPPLY INLET,ZONEHVAC:IDEALLOADSAIRSYSTEM,THERMAL ZONE: STAIR_0401 IDEAL LOADS AIR SYSTEM,Outlet,1
 Non-Parent Node Connection,THERMAL ZONE: STAIR_0402 IDEAL LOADS SUPPLY INLET,ZONEHVAC:IDEALLOADSAIRSYSTEM,THERMAL ZONE: STAIR_0402 IDEAL LOADS AIR SYSTEM,Outlet,1
 Non-Parent Node Connection,THERMAL ZONE: STAIR_0501 IDEAL LOADS SUPPLY INLET,ZONEHVAC:IDEALLOADSAIRSYSTEM,THERMAL ZONE: STAIR_0501 IDEAL LOADS AIR SYSTEM,Outlet,1
 Non-Parent Node Connection,THERMAL ZONE: STAIR_0502 IDEAL LOADS SUPPLY INLET,ZONEHVAC:IDEALLOADSAIRSYSTEM,THERMAL ZONE: STAIR_0502 IDEAL LOADS AIR SYSTEM,Outlet,1
 Non-Parent Node Connection,THERMAL ZONE: STAIR_2101 IDEAL LOADS SUPPLY INLET,ZONEHVAC:IDEALLOADSAIRSYSTEM,THERMAL ZONE: STAIR_2101 IDEAL LOADS AIR SYSTEM,Outlet,1
 Non-Parent Node Connection,THERMAL ZONE: STAIR_2102 IDEAL LOADS SUPPLY INLET,ZONEHVAC:IDEALLOADSAIRSYSTEM,THERMAL ZONE: STAIR_2102 IDEAL LOADS AIR SYSTEM,Outlet,1
 Non-Parent Node Connection,THERMAL ZONE: STAIR_2201 IDEAL LOADS SUPPLY INLET,ZONEHVAC:IDEALLOADSAIRSYSTEM,THERMAL ZONE: STAIR_2201 IDEAL LOADS AIR SYSTEM,Outlet,1
 Non-Parent Node Connection,THERMAL ZONE: STAIR_2202 IDEAL LOADS SUPPLY INLET,ZONEHVAC:IDEALLOADSAIRSYSTEM,THERMAL ZONE: STAIR_2202 IDEAL LOADS AIR SYSTEM,Outlet,1
 Non-Parent Node Connection,THERMAL ZONE: STAIR_2301 IDEAL LOADS SUPPLY INLET,ZONEHVAC:IDEALLOADSAIRSYSTEM,THERMAL ZONE: STAIR_2301 IDEAL LOADS AIR SYSTEM,Outlet,1
 Non-Parent Node Connection,THERMAL ZONE: STAIR_2302 IDEAL LOADS SUPPLY INLET,ZONEHVAC:IDEALLOADSAIRSYSTEM,THERMAL ZONE: STAIR_2302 IDEAL LOADS AIR SYSTEM,Outlet,1
 Non-Parent Node Connection,THERMAL ZONE: STAIR_P101 IDEAL LOADS SUPPLY INLET,ZONEHVAC:IDEALLOADSAIRSYSTEM,THERMAL ZONE: STAIR_P101 IDEAL LOADS AIR SYSTEM,Outlet,1
 Non-Parent Node Connection,THERMAL ZONE: STAIR_P102 IDEAL LOADS SUPPLY INLET,ZONEHVAC:IDEALLOADSAIRSYSTEM,THERMAL ZONE: STAIR_P102 IDEAL LOADS AIR SYSTEM,Outlet,1
 Non-Parent Node Connection,THERMAL ZONE: STAIR_P201 IDEAL LOADS SUPPLY INLET,ZONEHVAC:IDEALLOADSAIRSYSTEM,THERMAL ZONE: STAIR_P201 IDEAL LOADS AIR SYSTEM,Outlet,1
 Non-Parent Node Connection,THERMAL ZONE: STAIR_P202 IDEAL LOADS SUPPLY INLET,ZONEHVAC:IDEALLOADSAIRSYSTEM,THERMAL ZONE: STAIR_P202 IDEAL LOADS AIR SYSTEM,Outlet,1
 Non-Parent Node Connection,THERMAL ZONE: STOR_0100 IDEAL LOADS SUPPLY INLET,ZONEHVAC:IDEALLOADSAIRSYSTEM,THERMAL ZONE: STOR_0100 IDEAL LOADS AIR SYSTEM,Outlet,1
 Non-Parent Node Connection,THERMAL ZONE: STOR_0200 IDEAL LOADS SUPPLY INLET,ZONEHVAC:IDEALLOADSAIRSYSTEM,THERMAL ZONE: STOR_0200 IDEAL LOADS AIR SYSTEM,Outlet,1
 Non-Parent Node Connection,THERMAL ZONE: STOR_0300 IDEAL LOADS SUPPLY INLET,ZONEHVAC:IDEALLOADSAIRSYSTEM,THERMAL ZONE: STOR_0300 IDEAL LOADS AIR SYSTEM,Outlet,1
 Non-Parent Node Connection,THERMAL ZONE: STOR_0400 IDEAL LOADS SUPPLY INLET,ZONEHVAC:IDEALLOADSAIRSYSTEM,THERMAL ZONE: STOR_0400 IDEAL LOADS AIR SYSTEM,Outlet,1
 Non-Parent Node Connection,THERMAL ZONE: STOR_0500 IDEAL LOADS SUPPLY INLET,ZONEHVAC:IDEALLOADSAIRSYSTEM,THERMAL ZONE: STOR_0500 IDEAL LOADS AIR SYSTEM,Outlet,1
 Non-Parent Node Connection,THERMAL ZONE: STOR_2100 IDEAL LOADS SUPPLY INLET,ZONEHVAC:IDEALLOADSAIRSYSTEM,THERMAL ZONE: STOR_2100 IDEAL LOADS AIR SYSTEM,Outlet,1
 Non-Parent Node Connection,THERMAL ZONE: STOR_P100 IDEAL LOADS SUPPLY INLET,ZONEHVAC:IDEALLOADSAIRSYSTEM,THERMAL ZONE: STOR_P100 IDEAL LOADS AIR SYSTEM,Outlet,1
 Non-Parent Node Connection,THERMAL ZONE: STOR_P200 IDEAL LOADS SUPPLY INLET,ZONEHVAC:IDEALLOADSAIRSYSTEM,THERMAL ZONE: STOR_P200 IDEAL LOADS AIR SYSTEM,Outlet,1
 Non-Parent Node Connection,THERMAL ZONE: TRASH_0200 IDEAL LOADS SUPPLY INLET,ZONEHVAC:IDEALLOADSAIRSYSTEM,THERMAL ZONE: TRASH_0200 IDEAL LOADS AIR SYSTEM,Outlet,1
 Non-Parent Node Connection,THERMAL ZONE: TRASH_0300 IDEAL LOADS SUPPLY INLET,ZONEHVAC:IDEALLOADSAIRSYSTEM,THERMAL ZONE: TRASH_0300 IDEAL LOADS AIR SYSTEM,Outlet,1
 Non-Parent Node Connection,THERMAL ZONE: TRASH_0400 IDEAL LOADS SUPPLY INLET,ZONEHVAC:IDEALLOADSAIRSYSTEM,THERMAL ZONE: TRASH_0400 IDEAL LOADS AIR SYSTEM,Outlet,1
 Non-Parent Node Connection,THERMAL ZONE: TRASH_0500 IDEAL LOADS SUPPLY INLET,ZONEHVAC:IDEALLOADSAIRSYSTEM,THERMAL ZONE: TRASH_0500 IDEAL LOADS AIR SYSTEM,Outlet,1
 Non-Parent Node Connection,THERMAL ZONE: TRASH_2100 IDEAL LOADS SUPPLY INLET,ZONEHVAC:IDEALLOADSAIRSYSTEM,THERMAL ZONE: TRASH_2100 IDEAL LOADS AIR SYSTEM,Outlet,1
 Non-Parent Node Connection,THERMAL ZONE: TRASH_2200 IDEAL LOADS SUPPLY INLET,ZONEHVAC:IDEALLOADSAIRSYSTEM,THERMAL ZONE: TRASH_2200 IDEAL LOADS AIR SYSTEM,Outlet,1
 Non-Parent Node Connection,DHW SUPPLY INLET NODE,PUMP:VARIABLESPEED,DHW SUPPLY PUMP,Inlet,1
 Non-Parent Node Connection,NODE 192,PUMP:VARIABLESPEED,DHW SUPPLY PUMP,Outlet,1
