{
   "completed_at" : "20200522T185057Z",
   "completed_status" : "Success",
   "created_at" : "20200522T180851Z",
   "current_step" : 0,
   "eplusout_err" : "Program Version,EnergyPlus, Version 9.3.0-baff08990c, YMD=2020.05.22 11:48,\n   ** Warning ** Timestep: Requested number (1) is less than the suggested minimum of 4.\n   **   ~~~   ** Please see entry for Timestep in Input/Output Reference for discussion of considerations.\n   ************* Beginning Zone Sizing Calculations\n   ** Warning ** ProcessScheduleInput: Schedule:Constant=\"ALWAYS_ON\", Blank Schedule Type Limits Name input -- will not be validated.\n   ** Warning ** ProcessScheduleInput: Schedule:Constant=\"ALWAYS ON DISCRETE\", Blank Schedule Type Limits Name input -- will not be validated.\n   ** Warning ** ProcessScheduleInput: Schedule:Constant=\"ALWAYS ON DISCRETE 13\", Blank Schedule Type Limits Name input -- will not be validated.\n   ** Warning ** ProcessScheduleInput: Schedule:Constant=\"ALWAYS OFF DISCRETE\", Blank Schedule Type Limits Name input -- will not be validated.\n   ** Warning ** ProcessScheduleInput: Schedule:Constant=\"ALWAYS ON CONTINUOUS\", Blank Schedule Type Limits Name input -- will not be validated.\n   ** Warning ** ProcessScheduleInput: Schedule:Constant=\"ALWAYS ON DISCRETE 14\", Blank Schedule Type Limits Name input -- will not be validated.\n   ** Warning ** GetHTSurfaceData: Surfaces with interface to Ground found but no \"Ground Temperatures\" were input.\n   **   ~~~   ** Found first in surface=SURFACE 1830\n   **   ~~~   ** Defaults, constant throughout the year of (18.0) will be used.\n   ** Warning ** BuildingSurface:Detailed=\"SURFACE 1830\", underground Floor Area = 4.08E-003\n   **   ~~~   ** ..which does not match its construction area.\n   ** Warning ** BuildingSurface:Detailed=\"SURFACE 1830\", underground Floor Perimeter = 1.28\n   **   ~~~   ** ..which is less than its construction exposed perimeter.\n   ** Warning ** BuildingSurface:Detailed=\"SURFACE 1832\", underground Floor Area = 1.23E-002\n   **   ~~~   ** ..which does not match its construction area.\n   ** Warning ** BuildingSurface:Detailed=\"SURFACE 1832\", underground Floor Perimeter = 3.88\n   **   ~~~   ** ..which is less than its construction exposed perimeter.\n   ** Warning ** BuildingSurface:Detailed=\"SURFACE 326\", underground Floor Area = 18.73\n   **   ~~~   ** ..which does not match its construction area.\n   ** Warning ** BuildingSurface:Detailed=\"SURFACE 326\", underground Floor Perimeter = 18.82\n   **   ~~~   ** ..which is less than its construction exposed perimeter.\n   ** Warning ** BuildingSurface:Detailed=\"SURFACE 1410\", underground Floor Area = 7.89E-003\n   **   ~~~   ** ..which does not match its construction area.\n   ** Warning ** BuildingSurface:Detailed=\"SURFACE 1410\", underground Floor Perimeter = 2.48\n   **   ~~~   ** ..which is less than its construction exposed perimeter.\n   ** Warning ** BuildingSurface:Detailed=\"SURFACE 320\", underground Floor Area = 15.58\n   **   ~~~   ** ..which does not match its construction area.\n   ** Warning ** BuildingSurface:Detailed=\"SURFACE 320\", underground Floor Perimeter = 17.86\n   **   ~~~   ** ..which is less than its construction exposed perimeter.\n   ** Warning ** BuildingSurface:Detailed=\"SURFACE 347\", underground Floor Area = 9.45\n   **   ~~~   ** ..which does not match its construction area.\n   ** Warning ** BuildingSurface:Detailed=\"SURFACE 347\", underground Floor Perimeter = 12.57\n   **   ~~~   ** ..which is less than its construction exposed perimeter.\n   ** Warning ** BuildingSurface:Detailed=\"SURFACE 51\", underground Floor Area = 3.48E-003\n   **   ~~~   ** ..which does not match its construction area.\n   ** Warning ** BuildingSurface:Detailed=\"SURFACE 51\", underground Floor Perimeter = 9.56\n   **   ~~~   ** ..which is less than its construction exposed perimeter.\n   ** Warning ** BuildingSurface:Detailed=\"SURFACE 1403\", underground Floor Area = 9.28E-003\n   **   ~~~   ** ..which does not match its construction area.\n   ** Warning ** BuildingSurface:Detailed=\"SURFACE 1403\", underground Floor Perimeter = 2.92\n   **   ~~~   ** ..which is less than its construction exposed perimeter.\n   ** Warning ** BuildingSurface:Detailed=\"SURFACE 314\", underground Floor Area = 19.20\n   **   ~~~   ** ..which does not match its construction area.\n   ** Warning ** BuildingSurface:Detailed=\"SURFACE 314\", underground Floor Perimeter = 18.96\n   **   ~~~   ** ..which is less than its construction exposed perimeter.\n   ** Warning ** BuildingSurface:Detailed=\"SURFACE 339\", underground Floor Area = 19.17\n   **   ~~~   ** ..which does not match its construction area.\n   ** Warning ** BuildingSurface:Detailed=\"SURFACE 339\", underground Floor Perimeter = 18.96\n   **   ~~~   ** ..which is less than its construction exposed perimeter.\n   ** Warning ** BuildingSurface:Detailed=\"SURFACE 333\", underground Floor Area = 6.85\n   **   ~~~   ** ..which does not match its construction area.\n   ** Warning ** BuildingSurface:Detailed=\"SURFACE 333\", underground Floor Perimeter = 10.48\n   **   ~~~   ** ..which is less than its construction exposed perimeter.\n   ** Warning ** GetSurfaceData: InterZone Surface Areas do not match as expected and might not satisfy conservation of energy:\n   **   ~~~   ** ...use Output:Diagnostics,DisplayExtraWarnings; to show more details on individual mismatches.\n   ** Warning ** CalcSurfaceCentroid: 33 Surfaces have the Z coordinate < 0.\n   **   ~~~   ** ...in any calculations, Wind Speed will be 0.0 for these surfaces.\n   **   ~~~   ** ...in any calculations, Outside temperatures will be the outside temperature + 9.750E-003 for these surfaces.\n   **   ~~~   ** ...that is, these surfaces will have conditions as though at ground level.\n   ** Warning ** GetSurfaceData: There are 19 coincident/collinear vertices; These have been deleted unless the deletion would bring the number of surface sides < 3.\n   **   ~~~   ** For explicit details on each problem surface, use Output:Diagnostics,DisplayExtraWarnings;\n   ** Severe  ** GetSurfaceData: There are 12 degenerate surfaces; Degenerate surfaces are those with number of sides < 3.\n   **   ~~~   ** These surfaces should be deleted.\n   **   ~~~   ** For explicit details on each problem surface, use Output:Diagnostics,DisplayExtraWarnings;\n   ** Warning ** CalculateZoneVolume: 14 zones are not fully enclosed. For more details use:  Output:Diagnostics,DisplayExtrawarnings; \n   ** Warning ** CheckUsedConstructions: There are 38 nominally unused constructions in input.\n   **   ~~~   ** For explicit details on each unused construction, use Output:Diagnostics,DisplayExtraWarnings;\n   ** Warning ** DetermineShadowingCombinations: There are 6 surfaces which are receiving surfaces and are non-convex.\n   **   ~~~   ** ...Shadowing values may be inaccurate. Check .shd report file for more surface shading details\n   **   ~~~   ** ...Add Output:Diagnostics,DisplayExtraWarnings; to see individual warnings for each surface.\n   ** Severe  ** DetermineShadowingCombinations: There are 6 surfaces which are casting surfaces and are non-convex.\n   **   ~~~   ** ...Shadowing values may be inaccurate. Check .shd report file for more surface shading details\n   **   ~~~   ** ...Add Output:Diagnostics,DisplayExtraWarnings; to see individual severes for each surface.\n   ** Warning ** GetSimpleAirModelInputs: ZoneInfiltration:DesignFlowRate=\"THERMAL ZONE: CORR_0300 HIGHRISEAPARTMENT CORRIDOR INFILTRATION\", Design Flow Rate Calculation Method specifies Flow per Exterior Surface Area, but Exterior Surface Area = 0.  0 Infiltration will result.\n   ** Warning ** GetSimpleAirModelInputs: ZoneInfiltration:DesignFlowRate=\"THERMAL ZONE: CORR_0400 HIGHRISEAPARTMENT CORRIDOR INFILTRATION\", Design Flow Rate Calculation Method specifies Flow per Exterior Surface Area, but Exterior Surface Area = 0.  0 Infiltration will result.\n   ** Warning ** GetSimpleAirModelInputs: ZoneInfiltration:DesignFlowRate=\"THERMAL ZONE: CORR_0500 HIGHRISEAPARTMENT CORRIDOR INFILTRATION\", Design Flow Rate Calculation Method specifies Flow per Exterior Surface Area, but Exterior Surface Area = 0.  0 Infiltration will result.\n   ** Warning ** GetSimpleAirModelInputs: ZoneInfiltration:DesignFlowRate=\"THERMAL ZONE: ELEV LOBBY_2300 HIGHRISEAPARTMENT CORRIDOR INFILTRATION\", Design Flow Rate Calculation Method specifies Flow per Exterior Surface Area, but Exterior Surface Area = 0.  0 Infiltration will result.\n   ** Warning ** GetSimpleAirModelInputs: ZoneInfiltration:DesignFlowRate=\"THERMAL ZONE: ELEC_0300 HIGHRISEAPARTMENT CORRIDOR INFILTRATION 3\", Design Flow Rate Calculation Method specifies Flow per Exterior Surface Area, but Exterior Surface Area = 0.  0 Infiltration will result.\n   ** Warning ** GetSimpleAirModelInputs: ZoneInfiltration:DesignFlowRate=\"THERMAL ZONE: ELEC_0400 HIGHRISEAPARTMENT CORRIDOR INFILTRATION 3\", Design Flow Rate Calculation Method specifies Flow per Exterior Surface Area, but Exterior Surface Area = 0.  0 Infiltration will result.\n   ** Warning ** GetSimpleAirModelInputs: ZoneInfiltration:DesignFlowRate=\"THERMAL ZONE: MECH_0300 HIGHRISEAPARTMENT CORRIDOR INFILTRATION 3\", Design Flow Rate Calculation Method specifies Flow per Exterior Surface Area, but Exterior Surface Area = 0.  0 Infiltration will result.\n   ** Warning ** GetSimpleAirModelInputs: ZoneInfiltration:DesignFlowRate=\"THERMAL ZONE: MECH_0400 HIGHRISEAPARTMENT CORRIDOR INFILTRATION 3\", Design Flow Rate Calculation Method specifies Flow per Exterior Surface Area, but Exterior Surface Area = 0.  0 Infiltration will result.\n   ** Warning ** GetSimpleAirModelInputs: ZoneInfiltration:DesignFlowRate=\"THERMAL ZONE: MECH_0500 HIGHRISEAPARTMENT CORRIDOR INFILTRATION 3\", Design Flow Rate Calculation Method specifies Flow per Exterior Surface Area, but Exterior Surface Area = 0.  0 Infiltration will result.\n   ** Warning ** GetSimpleAirModelInputs: ZoneInfiltration:DesignFlowRate=\"THERMAL ZONE: MECH_2100 HIGHRISEAPARTMENT CORRIDOR INFILTRATION 3\", Design Flow Rate Calculation Method specifies Flow per Exterior Surface Area, but Exterior Surface Area = 0.  0 Infiltration will result.\n   ** Warning ** GetSimpleAirModelInputs: ZoneInfiltration:DesignFlowRate=\"THERMAL ZONE: RESTROOM_2202 HIGHRISEAPARTMENT CORRIDOR INFILTRATION 2\", Design Flow Rate Calculation Method specifies Flow per Exterior Surface Area, but Exterior Surface Area = 0.  0 Infiltration will result.\n   ** Warning ** GetSimpleAirModelInputs: ZoneInfiltration:DesignFlowRate=\"THERMAL ZONE: ELEV_0102 HIGHRISEAPARTMENT CORRIDOR INFILTRATION 8\", Design Flow Rate Calculation Method specifies Flow per Exterior Surface Area, but Exterior Surface Area = 0.  0 Infiltration will result.\n   ** Warning ** GetSimpleAirModelInputs: ZoneInfiltration:DesignFlowRate=\"THERMAL ZONE: ELEV_0201 HIGHRISEAPARTMENT CORRIDOR INFILTRATION 8\", Design Flow Rate Calculation Method specifies Flow per Exterior Surface Area, but Exterior Surface Area = 0.  0 Infiltration will result.\n   ** Warning ** GetSimpleAirModelInputs: ZoneInfiltration:DesignFlowRate=\"THERMAL ZONE: ELEV_0202 HIGHRISEAPARTMENT CORRIDOR INFILTRATION 8\", Design Flow Rate Calculation Method specifies Flow per Exterior Surface Area, but Exterior Surface Area = 0.  0 Infiltration will result.\n   ** Warning ** GetSimpleAirModelInputs: ZoneInfiltration:DesignFlowRate=\"THERMAL ZONE: ELEV_0301 HIGHRISEAPARTMENT CORRIDOR INFILTRATION 8\", Design Flow Rate Calculation Method specifies Flow per Exterior Surface Area, but Exterior Surface Area = 0.  0 Infiltration will result.\n   ** Warning ** GetSimpleAirModelInputs: ZoneInfiltration:DesignFlowRate=\"THERMAL ZONE: ELEV_0302 HIGHRISEAPARTMENT CORRIDOR INFILTRATION 8\", Design Flow Rate Calculation Method specifies Flow per Exterior Surface Area, but Exterior Surface Area = 0.  0 Infiltration will result.\n   ** Warning ** GetSimpleAirModelInputs: ZoneInfiltration:DesignFlowRate=\"THERMAL ZONE: ELEV_0401 HIGHRISEAPARTMENT CORRIDOR INFILTRATION 8\", Design Flow Rate Calculation Method specifies Flow per Exterior Surface Area, but Exterior Surface Area = 0.  0 Infiltration will result.\n   ** Warning ** GetSimpleAirModelInputs: ZoneInfiltration:DesignFlowRate=\"THERMAL ZONE: ELEV_0402 HIGHRISEAPARTMENT CORRIDOR INFILTRATION 8\", Design Flow Rate Calculation Method specifies Flow per Exterior Surface Area, but Exterior Surface Area = 0.  0 Infiltration will result.\n   ** Warning ** GetSimpleAirModelInputs: ZoneInfiltration:DesignFlowRate=\"THERMAL ZONE: ELEV_0501 HIGHRISEAPARTMENT CORRIDOR INFILTRATION 8\", Design Flow Rate Calculation Method specifies Flow per Exterior Surface Area, but Exterior Surface Area = 0.  0 Infiltration will result.\n   ** Warning ** GetSimpleAirModelInputs: ZoneInfiltration:DesignFlowRate=\"THERMAL ZONE: ELEV_0502 HIGHRISEAPARTMENT CORRIDOR INFILTRATION 8\", Design Flow Rate Calculation Method specifies Flow per Exterior Surface Area, but Exterior Surface Area = 0.  0 Infiltration will result.\n   ** Warning ** GetSimpleAirModelInputs: ZoneInfiltration:DesignFlowRate=\"THERMAL ZONE: ELEV_2101 HIGHRISEAPARTMENT CORRIDOR INFILTRATION 8\", Design Flow Rate Calculation Method specifies Flow per Exterior Surface Area, but Exterior Surface Area = 0.  0 Infiltration will result.\n   ** Warning ** GetSimpleAirModelInputs: ZoneInfiltration:DesignFlowRate=\"THERMAL ZONE: ELEV_2102 HIGHRISEAPARTMENT CORRIDOR INFILTRATION 8\", Design Flow Rate Calculation Method specifies Flow per Exterior Surface Area, but Exterior Surface Area = 0.  0 Infiltration will result.\n   ** Warning ** GetSimpleAirModelInputs: ZoneInfiltration:DesignFlowRate=\"THERMAL ZONE: ELEV_2301 HIGHRISEAPARTMENT CORRIDOR INFILTRATION 8\", Design Flow Rate Calculation Method specifies Flow per Exterior Surface Area, but Exterior Surface Area = 0.  0 Infiltration will result.\n   ** Warning ** GetSimpleAirModelInputs: ZoneInfiltration:DesignFlowRate=\"THERMAL ZONE: ELEV_2302 HIGHRISEAPARTMENT CORRIDOR INFILTRATION 8\", Design Flow Rate Calculation Method specifies Flow per Exterior Surface Area, but Exterior Surface Area = 0.  0 Infiltration will result.\n   ** Warning ** GetSimpleAirModelInputs: ZoneInfiltration:DesignFlowRate=\"THERMAL ZONE: STAIR_0102 HIGHRISEAPARTMENT CORRIDOR INFILTRATION 5\", Design Flow Rate Calculation Method specifies Flow per Exterior Surface Area, but Exterior Surface Area = 0.  0 Infiltration will result.\n   ** Warning ** GetSimpleAirModelInputs: ZoneInfiltration:DesignFlowRate=\"THERMAL ZONE: STAIR_0202 HIGHRISEAPARTMENT CORRIDOR INFILTRATION 5\", Design Flow Rate Calculation Method specifies Flow per Exterior Surface Area, but Exterior Surface Area = 0.  0 Infiltration will result.\n   ** Warning ** GetSimpleAirModelInputs: ZoneInfiltration:DesignFlowRate=\"THERMAL ZONE: STAIR_0301 HIGHRISEAPARTMENT CORRIDOR INFILTRATION 5\", Design Flow Rate Calculation Method specifies Flow per Exterior Surface Area, but Exterior Surface Area = 0.  0 Infiltration will result.\n   ** Warning ** GetSimpleAirModelInputs: ZoneInfiltration:DesignFlowRate=\"THERMAL ZONE: STAIR_0302 HIGHRISEAPARTMENT CORRIDOR INFILTRATION 5\", Design Flow Rate Calculation Method specifies Flow per Exterior Surface Area, but Exterior Surface Area = 0.  0 Infiltration will result.\n   ** Warning ** GetSimpleAirModelInputs: ZoneInfiltration:DesignFlowRate=\"THERMAL ZONE: STAIR_0401 HIGHRISEAPARTMENT CORRIDOR INFILTRATION 5\", Design Flow Rate Calculation Method specifies Flow per Exterior Surface Area, but Exterior Surface Area = 0.  0 Infiltration will result.\n   ** Warning ** GetSimpleAirModelInputs: ZoneInfiltration:DesignFlowRate=\"THERMAL ZONE: STAIR_0402 HIGHRISEAPARTMENT CORRIDOR INFILTRATION 5\", Design Flow Rate Calculation Method specifies Flow per Exterior Surface Area, but Exterior Surface Area = 0.  0 Infiltration will result.\n   ** Warning ** GetSimpleAirModelInputs: ZoneInfiltration:DesignFlowRate=\"THERMAL ZONE: STAIR_0501 HIGHRISEAPARTMENT CORRIDOR INFILTRATION 5\", Design Flow Rate Calculation Method specifies Flow per Exterior Surface Area, but Exterior Surface Area = 0.  0 Infiltration will result.\n   ** Warning ** GetSimpleAirModelInputs: ZoneInfiltration:DesignFlowRate=\"THERMAL ZONE: STAIR_0502 HIGHRISEAPARTMENT CORRIDOR INFILTRATION 5\", Design Flow Rate Calculation Method specifies Flow per Exterior Surface Area, but Exterior Surface Area = 0.  0 Infiltration will result.\n   ** Warning ** GetSimpleAirModelInputs: ZoneInfiltration:DesignFlowRate=\"THERMAL ZONE: STAIR_2101 HIGHRISEAPARTMENT CORRIDOR INFILTRATION 5\", Design Flow Rate Calculation Method specifies Flow per Exterior Surface Area, but Exterior Surface Area = 0.  0 Infiltration will result.\n   ** Warning ** GetSimpleAirModelInputs: ZoneInfiltration:DesignFlowRate=\"THERMAL ZONE: STAIR_2102 HIGHRISEAPARTMENT CORRIDOR INFILTRATION 5\", Design Flow Rate Calculation Method specifies Flow per Exterior Surface Area, but Exterior Surface Area = 0.  0 Infiltration will result.\n   ** Warning ** GetSimpleAirModelInputs: ZoneInfiltration:DesignFlowRate=\"THERMAL ZONE: STAIR_2201 HIGHRISEAPARTMENT CORRIDOR INFILTRATION 5\", Design Flow Rate Calculation Method specifies Flow per Exterior Surface Area, but Exterior Surface Area = 0.  0 Infiltration will result.\n   ** Warning ** GetSimpleAirModelInputs: ZoneInfiltration:DesignFlowRate=\"THERMAL ZONE: STAIR_2202 HIGHRISEAPARTMENT CORRIDOR INFILTRATION 5\", Design Flow Rate Calculation Method specifies Flow per Exterior Surface Area, but Exterior Surface Area = 0.  0 Infiltration will result.\n   ** Warning ** GetSimpleAirModelInputs: ZoneInfiltration:DesignFlowRate=\"THERMAL ZONE: STOR_0100 HIGHRISEAPARTMENT CORRIDOR INFILTRATION 6\", Design Flow Rate Calculation Method specifies Flow per Exterior Surface Area, but Exterior Surface Area = 0.  0 Infiltration will result.\n   ** Warning ** GetSimpleAirModelInputs: ZoneInfiltration:DesignFlowRate=\"THERMAL ZONE: STOR_0200 HIGHRISEAPARTMENT CORRIDOR INFILTRATION 6\", Design Flow Rate Calculation Method specifies Flow per Exterior Surface Area, but Exterior Surface Area = 0.  0 Infiltration will result.\n   ** Warning ** GetSimpleAirModelInputs: ZoneInfiltration:DesignFlowRate=\"THERMAL ZONE: STOR_0300 HIGHRISEAPARTMENT CORRIDOR INFILTRATION 6\", Design Flow Rate Calculation Method specifies Flow per Exterior Surface Area, but Exterior Surface Area = 0.  0 Infiltration will result.\n   ** Warning ** GetSimpleAirModelInputs: ZoneInfiltration:DesignFlowRate=\"THERMAL ZONE: STOR_0400 HIGHRISEAPARTMENT CORRIDOR INFILTRATION 6\", Design Flow Rate Calculation Method specifies Flow per Exterior Surface Area, but Exterior Surface Area = 0.  0 Infiltration will result.\n   ** Warning ** GetSimpleAirModelInputs: ZoneInfiltration:DesignFlowRate=\"THERMAL ZONE: STOR_0500 HIGHRISEAPARTMENT CORRIDOR INFILTRATION 6\", Design Flow Rate Calculation Method specifies Flow per Exterior Surface Area, but Exterior Surface Area = 0.  0 Infiltration will result.\n   ** Warning ** GetSimpleAirModelInputs: ZoneInfiltration:DesignFlowRate=\"THERMAL ZONE: STOR_2100 HIGHRISEAPARTMENT CORRIDOR INFILTRATION 6\", Design Flow Rate Calculation Method specifies Flow per Exterior Surface Area, but Exterior Surface Area = 0.  0 Infiltration will result.\n   ** Warning ** GetSimpleAirModelInputs: ZoneInfiltration:DesignFlowRate=\"THERMAL ZONE: TRASH_0300 HIGHRISEAPARTMENT CORRIDOR INFILTRATION 6\", Design Flow Rate Calculation Method specifies Flow per Exterior Surface Area, but Exterior Surface Area = 0.  0 Infiltration will result.\n   ** Warning ** GetSimpleAirModelInputs: ZoneInfiltration:DesignFlowRate=\"THERMAL ZONE: TRASH_0400 HIGHRISEAPARTMENT CORRIDOR INFILTRATION 6\", Design Flow Rate Calculation Method specifies Flow per Exterior Surface Area, but Exterior Surface Area = 0.  0 Infiltration will result.\n   ** Warning ** GetSimpleAirModelInputs: ZoneInfiltration:DesignFlowRate=\"THERMAL ZONE: TRASH_0500 HIGHRISEAPARTMENT CORRIDOR INFILTRATION 6\", Design Flow Rate Calculation Method specifies Flow per Exterior Surface Area, but Exterior Surface Area = 0.  0 Infiltration will result.\n   ** Warning ** GetSimpleAirModelInputs: ZoneInfiltration:DesignFlowRate=\"THERMAL ZONE: TRASH_2100 HIGHRISEAPARTMENT CORRIDOR INFILTRATION 6\", Design Flow Rate Calculation Method specifies Flow per Exterior Surface Area, but Exterior Surface Area = 0.  0 Infiltration will result.\n   ** Warning ** GetSimpleAirModelInputs: ZoneInfiltration:DesignFlowRate=\"THERMAL ZONE: XFMR_0201 HIGHRISEAPARTMENT CORRIDOR INFILTRATION 4\", Design Flow Rate Calculation Method specifies Flow per Exterior Surface Area, but Exterior Surface Area = 0.  0 Infiltration will result.\n   ** Warning ** GetSimpleAirModelInputs: ZoneInfiltration:DesignFlowRate=\"THERMAL ZONE: XFMR_0401 HIGHRISEAPARTMENT CORRIDOR INFILTRATION 4\", Design Flow Rate Calculation Method specifies Flow per Exterior Surface Area, but Exterior Surface Area = 0.  0 Infiltration will result.\n   ** Warning ** SetUpZoneSizingArrays: Requested Sizing for Zone=\"THERMAL ZONE: ELEC_0300\", Zone has no thermostat (ref: ZoneControl:Thermostat, et al)\n   ** Warning ** SetUpZoneSizingArrays: Requested Sizing for Zone=\"THERMAL ZONE: ELEC_0400\", Zone has no thermostat (ref: ZoneControl:Thermostat, et al)\n   ** Warning ** SetUpZoneSizingArrays: Requested Sizing for Zone=\"THERMAL ZONE: ELEV_0101\", Zone has no thermostat (ref: ZoneControl:Thermostat, et al)\n   ** Warning ** SetUpZoneSizingArrays: Requested Sizing for Zone=\"THERMAL ZONE: ELEV_0102\", Zone has no thermostat (ref: ZoneControl:Thermostat, et al)\n   ** Warning ** SetUpZoneSizingArrays: Requested Sizing for Zone=\"THERMAL ZONE: ELEV_0201\", Zone has no thermostat (ref: ZoneControl:Thermostat, et al)\n   ** Warning ** SetUpZoneSizingArrays: Requested Sizing for Zone=\"THERMAL ZONE: ELEV_0202\", Zone has no thermostat (ref: ZoneControl:Thermostat, et al)\n   ** Warning ** SetUpZoneSizingArrays: Requested Sizing for Zone=\"THERMAL ZONE: ELEV_0301\", Zone has no thermostat (ref: ZoneControl:Thermostat, et al)\n   ** Warning ** SetUpZoneSizingArrays: Requested Sizing for Zone=\"THERMAL ZONE: ELEV_0302\", Zone has no thermostat (ref: ZoneControl:Thermostat, et al)\n   ** Warning ** SetUpZoneSizingArrays: Requested Sizing for Zone=\"THERMAL ZONE: ELEV_0401\", Zone has no thermostat (ref: ZoneControl:Thermostat, et al)\n   ** Warning ** SetUpZoneSizingArrays: Requested Sizing for Zone=\"THERMAL ZONE: ELEV_0402\", Zone has no thermostat (ref: ZoneControl:Thermostat, et al)\n   ** Warning ** SetUpZoneSizingArrays: Requested Sizing for Zone=\"THERMAL ZONE: ELEV_0501\", Zone has no thermostat (ref: ZoneControl:Thermostat, et al)\n   ** Warning ** SetUpZoneSizingArrays: Requested Sizing for Zone=\"THERMAL ZONE: ELEV_0502\", Zone has no thermostat (ref: ZoneControl:Thermostat, et al)\n   ** Warning ** SetUpZoneSizingArrays: Requested Sizing for Zone=\"THERMAL ZONE: ELEV_2101\", Zone has no thermostat (ref: ZoneControl:Thermostat, et al)\n   ** Warning ** SetUpZoneSizingArrays: Requested Sizing for Zone=\"THERMAL ZONE: ELEV_2102\", Zone has no thermostat (ref: ZoneControl:Thermostat, et al)\n   ** Warning ** SetUpZoneSizingArrays: Requested Sizing for Zone=\"THERMAL ZONE: ELEV_2301\", Zone has no thermostat (ref: ZoneControl:Thermostat, et al)\n   ** Warning ** SetUpZoneSizingArrays: Requested Sizing for Zone=\"THERMAL ZONE: ELEV_2302\", Zone has no thermostat (ref: ZoneControl:Thermostat, et al)\n   ** Warning ** SetUpZoneSizingArrays: Requested Sizing for Zone=\"THERMAL ZONE: ELEV_2303\", Zone has no thermostat (ref: ZoneControl:Thermostat, et al)\n   ** Warning ** SetUpZoneSizingArrays: Requested Sizing for Zone=\"THERMAL ZONE: ELEV_2304\", Zone has no thermostat (ref: ZoneControl:Thermostat, et al)\n   ** Warning ** SetUpZoneSizingArrays: Requested Sizing for Zone=\"THERMAL ZONE: ELEV_P101\", Zone has no thermostat (ref: ZoneControl:Thermostat, et al)\n   ** Warning ** SetUpZoneSizingArrays: Requested Sizing for Zone=\"THERMAL ZONE: ELEV_P102\", Zone has no thermostat (ref: ZoneControl:Thermostat, et al)\n   ** Warning ** SetUpZoneSizingArrays: Requested Sizing for Zone=\"THERMAL ZONE: ELEV_P201\", Zone has no thermostat (ref: ZoneControl:Thermostat, et al)\n   ** Warning ** SetUpZoneSizingArrays: Requested Sizing for Zone=\"THERMAL ZONE: ELEV_P202\", Zone has no thermostat (ref: ZoneControl:Thermostat, et al)\n   ** Warning ** SetUpZoneSizingArrays: Requested Sizing for Zone=\"THERMAL ZONE: MECH_0200\", Zone has no thermostat (ref: ZoneControl:Thermostat, et al)\n   ** Warning ** SetUpZoneSizingArrays: Requested Sizing for Zone=\"THERMAL ZONE: MECH_0300\", Zone has no thermostat (ref: ZoneControl:Thermostat, et al)\n   ** Warning ** SetUpZoneSizingArrays: Requested Sizing for Zone=\"THERMAL ZONE: MECH_0400\", Zone has no thermostat (ref: ZoneControl:Thermostat, et al)\n   ** Warning ** SetUpZoneSizingArrays: Requested Sizing for Zone=\"THERMAL ZONE: MECH_0500\", Zone has no thermostat (ref: ZoneControl:Thermostat, et al)\n   ** Warning ** SetUpZoneSizingArrays: Requested Sizing for Zone=\"THERMAL ZONE: MECH_2100\", Zone has no thermostat (ref: ZoneControl:Thermostat, et al)\n   ** Warning ** SetUpZoneSizingArrays: Requested Sizing for Zone=\"THERMAL ZONE: PACKAGE_0100\", Zone has no thermostat (ref: ZoneControl:Thermostat, et al)\n   ** Warning ** SetUpZoneSizingArrays: Requested Sizing for Zone=\"THERMAL ZONE: RESTROOM_0100\", Zone has no thermostat (ref: ZoneControl:Thermostat, et al)\n   ** Warning ** SetUpZoneSizingArrays: Requested Sizing for Zone=\"THERMAL ZONE: RESTROOM_2201\", Zone has no thermostat (ref: ZoneControl:Thermostat, et al)\n   ** Warning ** SetUpZoneSizingArrays: Requested Sizing for Zone=\"THERMAL ZONE: RESTROOM_2202\", Zone has no thermostat (ref: ZoneControl:Thermostat, et al)\n   ** Warning ** SetUpZoneSizingArrays: Requested Sizing for Zone=\"THERMAL ZONE: RETAIL STORAGE_0100\", Zone has no thermostat (ref: ZoneControl:Thermostat, et al)\n   ** Warning ** SetUpZoneSizingArrays: Requested Sizing for Zone=\"THERMAL ZONE: STAIR_0101\", Zone has no thermostat (ref: ZoneControl:Thermostat, et al)\n   ** Warning ** SetUpZoneSizingArrays: Requested Sizing for Zone=\"THERMAL ZONE: STAIR_0102\", Zone has no thermostat (ref: ZoneControl:Thermostat, et al)\n   ** Warning ** SetUpZoneSizingArrays: Requested Sizing for Zone=\"THERMAL ZONE: STAIR_0201\", Zone has no thermostat (ref: ZoneControl:Thermostat, et al)\n   ** Warning ** SetUpZoneSizingArrays: Requested Sizing for Zone=\"THERMAL ZONE: STAIR_0202\", Zone has no thermostat (ref: ZoneControl:Thermostat, et al)\n   ** Warning ** SetUpZoneSizingArrays: Requested Sizing for Zone=\"THERMAL ZONE: STAIR_0301\", Zone has no thermostat (ref: ZoneControl:Thermostat, et al)\n   ** Warning ** SetUpZoneSizingArrays: Requested Sizing for Zone=\"THERMAL ZONE: STAIR_0302\", Zone has no thermostat (ref: ZoneControl:Thermostat, et al)\n   ** Warning ** SetUpZoneSizingArrays: Requested Sizing for Zone=\"THERMAL ZONE: STAIR_0401\", Zone has no thermostat (ref: ZoneControl:Thermostat, et al)\n   ** Warning ** SetUpZoneSizingArrays: Requested Sizing for Zone=\"THERMAL ZONE: STAIR_0402\", Zone has no thermostat (ref: ZoneControl:Thermostat, et al)\n   ** Warning ** SetUpZoneSizingArrays: Requested Sizing for Zone=\"THERMAL ZONE: STAIR_0501\", Zone has no thermostat (ref: ZoneControl:Thermostat, et al)\n   ** Warning ** SetUpZoneSizingArrays: Requested Sizing for Zone=\"THERMAL ZONE: STAIR_0502\", Zone has no thermostat (ref: ZoneControl:Thermostat, et al)\n   ** Warning ** SetUpZoneSizingArrays: Requested Sizing for Zone=\"THERMAL ZONE: STAIR_2101\", Zone has no thermostat (ref: ZoneControl:Thermostat, et al)\n   ** Warning ** SetUpZoneSizingArrays: Requested Sizing for Zone=\"THERMAL ZONE: STAIR_2102\", Zone has no thermostat (ref: ZoneControl:Thermostat, et al)\n   ** Warning ** SetUpZoneSizingArrays: Requested Sizing for Zone=\"THERMAL ZONE: STAIR_2201\", Zone has no thermostat (ref: ZoneControl:Thermostat, et al)\n   ** Warning ** SetUpZoneSizingArrays: Requested Sizing for Zone=\"THERMAL ZONE: STAIR_2202\", Zone has no thermostat (ref: ZoneControl:Thermostat, et al)\n   ** Warning ** SetUpZoneSizingArrays: Requested Sizing for Zone=\"THERMAL ZONE: STAIR_2301\", Zone has no thermostat (ref: ZoneControl:Thermostat, et al)\n   ** Warning ** SetUpZoneSizingArrays: Requested Sizing for Zone=\"THERMAL ZONE: STAIR_2302\", Zone has no thermostat (ref: ZoneControl:Thermostat, et al)\n   ** Warning ** SetUpZoneSizingArrays: Requested Sizing for Zone=\"THERMAL ZONE: STAIR_P101\", Zone has no thermostat (ref: ZoneControl:Thermostat, et al)\n   ** Warning ** SetUpZoneSizingArrays: Requested Sizing for Zone=\"THERMAL ZONE: STAIR_P102\", Zone has no thermostat (ref: ZoneControl:Thermostat, et al)\n   ** Warning ** SetUpZoneSizingArrays: Requested Sizing for Zone=\"THERMAL ZONE: STAIR_P201\", Zone has no thermostat (ref: ZoneControl:Thermostat, et al)\n   ** Warning ** SetUpZoneSizingArrays: Requested Sizing for Zone=\"THERMAL ZONE: STAIR_P202\", Zone has no thermostat (ref: ZoneControl:Thermostat, et al)\n   ** Warning ** SetUpZoneSizingArrays: Requested Sizing for Zone=\"THERMAL ZONE: STOR_0100\", Zone has no thermostat (ref: ZoneControl:Thermostat, et al)\n   ** Warning ** SetUpZoneSizingArrays: Requested Sizing for Zone=\"THERMAL ZONE: STOR_0200\", Zone has no thermostat (ref: ZoneControl:Thermostat, et al)\n   ** Warning ** SetUpZoneSizingArrays: Requested Sizing for Zone=\"THERMAL ZONE: STOR_0300\", Zone has no thermostat (ref: ZoneControl:Thermostat, et al)\n   ** Warning ** SetUpZoneSizingArrays: Requested Sizing for Zone=\"THERMAL ZONE: STOR_0400\", Zone has no thermostat (ref: ZoneControl:Thermostat, et al)\n   ** Warning ** SetUpZoneSizingArrays: Requested Sizing for Zone=\"THERMAL ZONE: STOR_0500\", Zone has no thermostat (ref: ZoneControl:Thermostat, et al)\n   ** Warning ** SetUpZoneSizingArrays: Requested Sizing for Zone=\"THERMAL ZONE: STOR_2100\", Zone has no thermostat (ref: ZoneControl:Thermostat, et al)\n   ** Warning ** SetUpZoneSizingArrays: Requested Sizing for Zone=\"THERMAL ZONE: STOR_P100\", Zone has no thermostat (ref: ZoneControl:Thermostat, et al)\n   ** Warning ** SetUpZoneSizingArrays: Requested Sizing for Zone=\"THERMAL ZONE: STOR_P200\", Zone has no thermostat (ref: ZoneControl:Thermostat, et al)\n   ** Warning ** SetUpZoneSizingArrays: Requested Sizing for Zone=\"THERMAL ZONE: TRASH_0200\", Zone has no thermostat (ref: ZoneControl:Thermostat, et al)\n   ** Warning ** SetUpZoneSizingArrays: Requested Sizing for Zone=\"THERMAL ZONE: TRASH_0300\", Zone has no thermostat (ref: ZoneControl:Thermostat, et al)\n   ** Warning ** SetUpZoneSizingArrays: Requested Sizing for Zone=\"THERMAL ZONE: TRASH_0400\", Zone has no thermostat (ref: ZoneControl:Thermostat, et al)\n   ** Warning ** SetUpZoneSizingArrays: Requested Sizing for Zone=\"THERMAL ZONE: TRASH_0500\", Zone has no thermostat (ref: ZoneControl:Thermostat, et al)\n   ** Warning ** SetUpZoneSizingArrays: Requested Sizing for Zone=\"THERMAL ZONE: TRASH_2100\", Zone has no thermostat (ref: ZoneControl:Thermostat, et al)\n   ** Warning ** SetUpZoneSizingArrays: Requested Sizing for Zone=\"THERMAL ZONE: TRASH_2200\", Zone has no thermostat (ref: ZoneControl:Thermostat, et al)\n   ** Warning ** Calculated design cooling load for zone=THERMAL ZONE: BOH_0100 is zero.\n   **   ~~~   ** Check Sizing:Zone and ZoneControl:Thermostat inputs.\n   ** Warning ** Calculated design cooling load for zone=THERMAL ZONE: CORR_0100 is zero.\n   **   ~~~   ** Check Sizing:Zone and ZoneControl:Thermostat inputs.\n   ** Warning ** Calculated design cooling load for zone=THERMAL ZONE: CORR_0200 is zero.\n   **   ~~~   ** Check Sizing:Zone and ZoneControl:Thermostat inputs.\n   ** Warning ** Calculated design heating load for zone=THERMAL ZONE: CORR_0200 is zero.\n   **   ~~~   ** Check Sizing:Zone and ZoneControl:Thermostat inputs.\n   ** Warning ** Calculated design cooling load for zone=THERMAL ZONE: CORR_0300 is zero.\n   **   ~~~   ** Check Sizing:Zone and ZoneControl:Thermostat inputs.\n   ** Warning ** Calculated design heating load for zone=THERMAL ZONE: CORR_0300 is zero.\n   **   ~~~   ** Check Sizing:Zone and ZoneControl:Thermostat inputs.\n   ** Warning ** Calculated design cooling load for zone=THERMAL ZONE: CORR_0400 is zero.\n   **   ~~~   ** Check Sizing:Zone and ZoneControl:Thermostat inputs.\n   ** Warning ** Calculated design heating load for zone=THERMAL ZONE: CORR_0400 is zero.\n   **   ~~~   ** Check Sizing:Zone and ZoneControl:Thermostat inputs.\n   ** Warning ** Calculated design cooling load for zone=THERMAL ZONE: CORR_0500 is zero.\n   **   ~~~   ** Check Sizing:Zone and ZoneControl:Thermostat inputs.\n   ** Warning ** Calculated design heating load for zone=THERMAL ZONE: CORR_0500 is zero.\n   **   ~~~   ** Check Sizing:Zone and ZoneControl:Thermostat inputs.\n   ** Warning ** Calculated design cooling load for zone=THERMAL ZONE: CORR_2100 is zero.\n   **   ~~~   ** Check Sizing:Zone and ZoneControl:Thermostat inputs.\n   ** Warning ** Calculated design heating load for zone=THERMAL ZONE: CORR_2100 is zero.\n   **   ~~~   ** Check Sizing:Zone and ZoneControl:Thermostat inputs.\n   ** Warning ** Calculated design cooling load for zone=THERMAL ZONE: CORR_2300 is zero.\n   **   ~~~   ** Check Sizing:Zone and ZoneControl:Thermostat inputs.\n   ** Warning ** Calculated design cooling load for zone=THERMAL ZONE: CORR_2301 is zero.\n   **   ~~~   ** Check Sizing:Zone and ZoneControl:Thermostat inputs.\n   ** Warning ** Calculated design cooling load for zone=THERMAL ZONE: ELEC_0300 is zero.\n   **   ~~~   ** Check Sizing:Zone and ZoneControl:Thermostat inputs.\n   ** Warning ** Calculated design heating load for zone=THERMAL ZONE: ELEC_0300 is zero.\n   **   ~~~   ** Check Sizing:Zone and ZoneControl:Thermostat inputs.\n   ** Warning ** Calculated design cooling load for zone=THERMAL ZONE: ELEC_0400 is zero.\n   **   ~~~   ** Check Sizing:Zone and ZoneControl:Thermostat inputs.\n   ** Warning ** Calculated design heating load for zone=THERMAL ZONE: ELEC_0400 is zero.\n   **   ~~~   ** Check Sizing:Zone and ZoneControl:Thermostat inputs.\n   ** Warning ** Calculated design cooling load for zone=THERMAL ZONE: ELEV CONTROL_2301 is zero.\n   **   ~~~   ** Check Sizing:Zone and ZoneControl:Thermostat inputs.\n   ** Warning ** Calculated design cooling load for zone=THERMAL ZONE: ELEV CONTROL_2302 is zero.\n   **   ~~~   ** Check Sizing:Zone and ZoneControl:Thermostat inputs.\n   ** Warning ** Calculated design cooling load for zone=THERMAL ZONE: ELEV LOBBY_2300 is zero.\n   **   ~~~   ** Check Sizing:Zone and ZoneControl:Thermostat inputs.\n   ** Warning ** Calculated design cooling load for zone=THERMAL ZONE: ELEV LOBBY_P101 is zero.\n   **   ~~~   ** Check Sizing:Zone and ZoneControl:Thermostat inputs.\n   ** Warning ** Calculated design cooling load for zone=THERMAL ZONE: ELEV LOBBY_P200 is zero.\n   **   ~~~   ** Check Sizing:Zone and ZoneControl:Thermostat inputs.\n   ** Warning ** Calculated design cooling load for zone=THERMAL ZONE: ELEV_0101 is zero.\n   **   ~~~   ** Check Sizing:Zone and ZoneControl:Thermostat inputs.\n   ** Warning ** Calculated design heating load for zone=THERMAL ZONE: ELEV_0101 is zero.\n   **   ~~~   ** Check Sizing:Zone and ZoneControl:Thermostat inputs.\n   ** Warning ** Calculated design cooling load for zone=THERMAL ZONE: ELEV_0102 is zero.\n   **   ~~~   ** Check Sizing:Zone and ZoneControl:Thermostat inputs.\n   ** Warning ** Calculated design heating load for zone=THERMAL ZONE: ELEV_0102 is zero.\n   **   ~~~   ** Check Sizing:Zone and ZoneControl:Thermostat inputs.\n   ** Warning ** Calculated design cooling load for zone=THERMAL ZONE: ELEV_0201 is zero.\n   **   ~~~   ** Check Sizing:Zone and ZoneControl:Thermostat inputs.\n   ** Warning ** Calculated design heating load for zone=THERMAL ZONE: ELEV_0201 is zero.\n   **   ~~~   ** Check Sizing:Zone and ZoneControl:Thermostat inputs.\n   ** Warning ** Calculated design cooling load for zone=THERMAL ZONE: ELEV_0202 is zero.\n   **   ~~~   ** Check Sizing:Zone and ZoneControl:Thermostat inputs.\n   ** Warning ** Calculated design heating load for zone=THERMAL ZONE: ELEV_0202 is zero.\n   **   ~~~   ** Check Sizing:Zone and ZoneControl:Thermostat inputs.\n   ** Warning ** Calculated design cooling load for zone=THERMAL ZONE: ELEV_0301 is zero.\n   **   ~~~   ** Check Sizing:Zone and ZoneControl:Thermostat inputs.\n   ** Warning ** Calculated design heating load for zone=THERMAL ZONE: ELEV_0301 is zero.\n   **   ~~~   ** Check Sizing:Zone and ZoneControl:Thermostat inputs.\n   ** Warning ** Calculated design cooling load for zone=THERMAL ZONE: ELEV_0302 is zero.\n   **   ~~~   ** Check Sizing:Zone and ZoneControl:Thermostat inputs.\n   ** Warning ** Calculated design heating load for zone=THERMAL ZONE: ELEV_0302 is zero.\n   **   ~~~   ** Check Sizing:Zone and ZoneControl:Thermostat inputs.\n   ** Warning ** Calculated design cooling load for zone=THERMAL ZONE: ELEV_0401 is zero.\n   **   ~~~   ** Check Sizing:Zone and ZoneControl:Thermostat inputs.\n   ** Warning ** Calculated design heating load for zone=THERMAL ZONE: ELEV_0401 is zero.\n   **   ~~~   ** Check Sizing:Zone and ZoneControl:Thermostat inputs.\n   ** Warning ** Calculated design cooling load for zone=THERMAL ZONE: ELEV_0402 is zero.\n   **   ~~~   ** Check Sizing:Zone and ZoneControl:Thermostat inputs.\n   ** Warning ** Calculated design heating load for zone=THERMAL ZONE: ELEV_0402 is zero.\n   **   ~~~   ** Check Sizing:Zone and ZoneControl:Thermostat inputs.\n   ** Warning ** Calculated design cooling load for zone=THERMAL ZONE: ELEV_0501 is zero.\n   **   ~~~   ** Check Sizing:Zone and ZoneControl:Thermostat inputs.\n   ** Warning ** Calculated design heating load for zone=THERMAL ZONE: ELEV_0501 is zero.\n   **   ~~~   ** Check Sizing:Zone and ZoneControl:Thermostat inputs.\n   ** Warning ** Calculated design cooling load for zone=THERMAL ZONE: ELEV_0502 is zero.\n   **   ~~~   ** Check Sizing:Zone and ZoneControl:Thermostat inputs.\n   ** Warning ** Calculated design heating load for zone=THERMAL ZONE: ELEV_0502 is zero.\n   **   ~~~   ** Check Sizing:Zone and ZoneControl:Thermostat inputs.\n   ** Warning ** Calculated design cooling load for zone=THERMAL ZONE: ELEV_2101 is zero.\n   **   ~~~   ** Check Sizing:Zone and ZoneControl:Thermostat inputs.\n   ** Warning ** Calculated design heating load for zone=THERMAL ZONE: ELEV_2101 is zero.\n   **   ~~~   ** Check Sizing:Zone and ZoneControl:Thermostat inputs.\n   ** Warning ** Calculated design cooling load for zone=THERMAL ZONE: ELEV_2102 is zero.\n   **   ~~~   ** Check Sizing:Zone and ZoneControl:Thermostat inputs.\n   ** Warning ** Calculated design heating load for zone=THERMAL ZONE: ELEV_2102 is zero.\n   **   ~~~   ** Check Sizing:Zone and ZoneControl:Thermostat inputs.\n   ** Warning ** Calculated design cooling load for zone=THERMAL ZONE: ELEV_2301 is zero.\n   **   ~~~   ** Check Sizing:Zone and ZoneControl:Thermostat inputs.\n   ** Warning ** Calculated design heating load for zone=THERMAL ZONE: ELEV_2301 is zero.\n   **   ~~~   ** Check Sizing:Zone and ZoneControl:Thermostat inputs.\n   ** Warning ** Calculated design cooling load for zone=THERMAL ZONE: ELEV_2302 is zero.\n   **   ~~~   ** Check Sizing:Zone and ZoneControl:Thermostat inputs.\n   ** Warning ** Calculated design heating load for zone=THERMAL ZONE: ELEV_2302 is zero.\n   **   ~~~   ** Check Sizing:Zone and ZoneControl:Thermostat inputs.\n   ** Warning ** Calculated design cooling load for zone=THERMAL ZONE: ELEV_2303 is zero.\n   **   ~~~   ** Check Sizing:Zone and ZoneControl:Thermostat inputs.\n   ** Warning ** Calculated design heating load for zone=THERMAL ZONE: ELEV_2303 is zero.\n   **   ~~~   ** Check Sizing:Zone and ZoneControl:Thermostat inputs.\n   ** Warning ** Calculated design cooling load for zone=THERMAL ZONE: ELEV_2304 is zero.\n   **   ~~~   ** Check Sizing:Zone and ZoneControl:Thermostat inputs.\n   ** Warning ** Calculated design heating load for zone=THERMAL ZONE: ELEV_2304 is zero.\n   **   ~~~   ** Check Sizing:Zone and ZoneControl:Thermostat inputs.\n   ** Warning ** Calculated design cooling load for zone=THERMAL ZONE: ELEV_P101 is zero.\n   **   ~~~   ** Check Sizing:Zone and ZoneControl:Thermostat inputs.\n   ** Warning ** Calculated design heating load for zone=THERMAL ZONE: ELEV_P101 is zero.\n   **   ~~~   ** Check Sizing:Zone and ZoneControl:Thermostat inputs.\n   ** Warning ** Calculated design cooling load for zone=THERMAL ZONE: ELEV_P102 is zero.\n   **   ~~~   ** Check Sizing:Zone and ZoneControl:Thermostat inputs.\n   ** Warning ** Calculated design heating load for zone=THERMAL ZONE: ELEV_P102 is zero.\n   **   ~~~   ** Check Sizing:Zone and ZoneControl:Thermostat inputs.\n   ** Warning ** Calculated design cooling load for zone=THERMAL ZONE: ELEV_P201 is zero.\n   **   ~~~   ** Check Sizing:Zone and ZoneControl:Thermostat inputs.\n   ** Warning ** Calculated design heating load for zone=THERMAL ZONE: ELEV_P201 is zero.\n   **   ~~~   ** Check Sizing:Zone and ZoneControl:Thermostat inputs.\n   ** Warning ** Calculated design cooling load for zone=THERMAL ZONE: ELEV_P202 is zero.\n   **   ~~~   ** Check Sizing:Zone and ZoneControl:Thermostat inputs.\n   ** Warning ** Calculated design heating load for zone=THERMAL ZONE: ELEV_P202 is zero.\n   **   ~~~   ** Check Sizing:Zone and ZoneControl:Thermostat inputs.\n   ** Warning ** Calculated design cooling load for zone=THERMAL ZONE: FCC_0100 is zero.\n   **   ~~~   ** Check Sizing:Zone and ZoneControl:Thermostat inputs.\n   ** Warning ** Calculated design cooling load for zone=THERMAL ZONE: LOBBY_MAIL_0100 is zero.\n   **   ~~~   ** Check Sizing:Zone and ZoneControl:Thermostat inputs.\n   ** Warning ** Calculated design cooling load for zone=THERMAL ZONE: MECH_0200 is zero.\n   **   ~~~   ** Check Sizing:Zone and ZoneControl:Thermostat inputs.\n   ** Warning ** Calculated design heating load for zone=THERMAL ZONE: MECH_0200 is zero.\n   **   ~~~   ** Check Sizing:Zone and ZoneControl:Thermostat inputs.\n   ** Warning ** Calculated design cooling load for zone=THERMAL ZONE: MECH_0300 is zero.\n   **   ~~~   ** Check Sizing:Zone and ZoneControl:Thermostat inputs.\n   ** Warning ** Calculated design heating load for zone=THERMAL ZONE: MECH_0300 is zero.\n   **   ~~~   ** Check Sizing:Zone and ZoneControl:Thermostat inputs.\n   ** Warning ** Calculated design cooling load for zone=THERMAL ZONE: MECH_0400 is zero.\n   **   ~~~   ** Check Sizing:Zone and ZoneControl:Thermostat inputs.\n   ** Warning ** Calculated design heating load for zone=THERMAL ZONE: MECH_0400 is zero.\n   **   ~~~   ** Check Sizing:Zone and ZoneControl:Thermostat inputs.\n   ** Warning ** Calculated design cooling load for zone=THERMAL ZONE: MECH_0500 is zero.\n   **   ~~~   ** Check Sizing:Zone and ZoneControl:Thermostat inputs.\n   ** Warning ** Calculated design heating load for zone=THERMAL ZONE: MECH_0500 is zero.\n   **   ~~~   ** Check Sizing:Zone and ZoneControl:Thermostat inputs.\n   ** Warning ** Calculated design cooling load for zone=THERMAL ZONE: MECH_2100 is zero.\n   **   ~~~   ** Check Sizing:Zone and ZoneControl:Thermostat inputs.\n   ** Warning ** Calculated design heating load for zone=THERMAL ZONE: MECH_2100 is zero.\n   **   ~~~   ** Check Sizing:Zone and ZoneControl:Thermostat inputs.\n   ** Warning ** Calculated design cooling load for zone=THERMAL ZONE: PACKAGE_0100 is zero.\n   **   ~~~   ** Check Sizing:Zone and ZoneControl:Thermostat inputs.\n   ** Warning ** Calculated design heating load for zone=THERMAL ZONE: PACKAGE_0100 is zero.\n   **   ~~~   ** Check Sizing:Zone and ZoneControl:Thermostat inputs.\n   ** Warning ** Calculated design cooling load for zone=THERMAL ZONE: RESTROOM_0100 is zero.\n   **   ~~~   ** Check Sizing:Zone and ZoneControl:Thermostat inputs.\n   ** Warning ** Calculated design heating load for zone=THERMAL ZONE: RESTROOM_0100 is zero.\n   **   ~~~   ** Check Sizing:Zone and ZoneControl:Thermostat inputs.\n   ** Warning ** Calculated design cooling load for zone=THERMAL ZONE: RESTROOM_2201 is zero.\n   **   ~~~   ** Check Sizing:Zone and ZoneControl:Thermostat inputs.\n   ** Warning ** Calculated design heating load for zone=THERMAL ZONE: RESTROOM_2201 is zero.\n   **   ~~~   ** Check Sizing:Zone and ZoneControl:Thermostat inputs.\n   ** Warning ** Calculated design cooling load for zone=THERMAL ZONE: RESTROOM_2202 is zero.\n   **   ~~~   ** Check Sizing:Zone and ZoneControl:Thermostat inputs.\n   ** Warning ** Calculated design heating load for zone=THERMAL ZONE: RESTROOM_2202 is zero.\n   **   ~~~   ** Check Sizing:Zone and ZoneControl:Thermostat inputs.\n   ** Warning ** Calculated design cooling load for zone=THERMAL ZONE: RETAIL STORAGE_0100 is zero.\n   **   ~~~   ** Check Sizing:Zone and ZoneControl:Thermostat inputs.\n   ** Warning ** Calculated design heating load for zone=THERMAL ZONE: RETAIL STORAGE_0100 is zero.\n   **   ~~~   ** Check Sizing:Zone and ZoneControl:Thermostat inputs.\n   ** Warning ** Calculated design cooling load for zone=THERMAL ZONE: STAIR_0101 is zero.\n   **   ~~~   ** Check Sizing:Zone and ZoneControl:Thermostat inputs.\n   ** Warning ** Calculated design heating load for zone=THERMAL ZONE: STAIR_0101 is zero.\n   **   ~~~   ** Check Sizing:Zone and ZoneControl:Thermostat inputs.\n   ** Warning ** Calculated design cooling load for zone=THERMAL ZONE: STAIR_0102 is zero.\n   **   ~~~   ** Check Sizing:Zone and ZoneControl:Thermostat inputs.\n   ** Warning ** Calculated design heating load for zone=THERMAL ZONE: STAIR_0102 is zero.\n   **   ~~~   ** Check Sizing:Zone and ZoneControl:Thermostat inputs.\n   ** Warning ** Calculated design cooling load for zone=THERMAL ZONE: STAIR_0201 is zero.\n   **   ~~~   ** Check Sizing:Zone and ZoneControl:Thermostat inputs.\n   ** Warning ** Calculated design heating load for zone=THERMAL ZONE: STAIR_0201 is zero.\n   **   ~~~   ** Check Sizing:Zone and ZoneControl:Thermostat inputs.\n   ** Warning ** Calculated design cooling load for zone=THERMAL ZONE: STAIR_0202 is zero.\n   **   ~~~   ** Check Sizing:Zone and ZoneControl:Thermostat inputs.\n   ** Warning ** Calculated design heating load for zone=THERMAL ZONE: STAIR_0202 is zero.\n   **   ~~~   ** Check Sizing:Zone and ZoneControl:Thermostat inputs.\n   ** Warning ** Calculated design cooling load for zone=THERMAL ZONE: STAIR_0301 is zero.\n   **   ~~~   ** Check Sizing:Zone and ZoneControl:Thermostat inputs.\n   ** Warning ** Calculated design heating load for zone=THERMAL ZONE: STAIR_0301 is zero.\n   **   ~~~   ** Check Sizing:Zone and ZoneControl:Thermostat inputs.\n   ** Warning ** Calculated design cooling load for zone=THERMAL ZONE: STAIR_0302 is zero.\n   **   ~~~   ** Check Sizing:Zone and ZoneControl:Thermostat inputs.\n   ** Warning ** Calculated design heating load for zone=THERMAL ZONE: STAIR_0302 is zero.\n   **   ~~~   ** Check Sizing:Zone and ZoneControl:Thermostat inputs.\n   ** Warning ** Calculated design cooling load for zone=THERMAL ZONE: STAIR_0401 is zero.\n   **   ~~~   ** Check Sizing:Zone and ZoneControl:Thermostat inputs.\n   ** Warning ** Calculated design heating load for zone=THERMAL ZONE: STAIR_0401 is zero.\n   **   ~~~   ** Check Sizing:Zone and ZoneControl:Thermostat inputs.\n   ** Warning ** Calculated design cooling load for zone=THERMAL ZONE: STAIR_0402 is zero.\n   **   ~~~   ** Check Sizing:Zone and ZoneControl:Thermostat inputs.\n   ** Warning ** Calculated design heating load for zone=THERMAL ZONE: STAIR_0402 is zero.\n   **   ~~~   ** Check Sizing:Zone and ZoneControl:Thermostat inputs.\n   ** Warning ** Calculated design cooling load for zone=THERMAL ZONE: STAIR_0501 is zero.\n   **   ~~~   ** Check Sizing:Zone and ZoneControl:Thermostat inputs.\n   ** Warning ** Calculated design heating load for zone=THERMAL ZONE: STAIR_0501 is zero.\n   **   ~~~   ** Check Sizing:Zone and ZoneControl:Thermostat inputs.\n   ** Warning ** Calculated design cooling load for zone=THERMAL ZONE: STAIR_0502 is zero.\n   **   ~~~   ** Check Sizing:Zone and ZoneControl:Thermostat inputs.\n   ** Warning ** Calculated design heating load for zone=THERMAL ZONE: STAIR_0502 is zero.\n   **   ~~~   ** Check Sizing:Zone and ZoneControl:Thermostat inputs.\n   ** Warning ** Calculated design cooling load for zone=THERMAL ZONE: STAIR_2101 is zero.\n   **   ~~~   ** Check Sizing:Zone and ZoneControl:Thermostat inputs.\n   ** Warning ** Calculated design heating load for zone=THERMAL ZONE: STAIR_2101 is zero.\n   **   ~~~   ** Check Sizing:Zone and ZoneControl:Thermostat inputs.\n   ** Warning ** Calculated design cooling load for zone=THERMAL ZONE: STAIR_2102 is zero.\n   **   ~~~   ** Check Sizing:Zone and ZoneControl:Thermostat inputs.\n   ** Warning ** Calculated design heating load for zone=THERMAL ZONE: STAIR_2102 is zero.\n   **   ~~~   ** Check Sizing:Zone and ZoneControl:Thermostat inputs.\n   ** Warning ** Calculated design cooling load for zone=THERMAL ZONE: STAIR_2201 is zero.\n   **   ~~~   ** Check Sizing:Zone and ZoneControl:Thermostat inputs.\n   ** Warning ** Calculated design heating load for zone=THERMAL ZONE: STAIR_2201 is zero.\n   **   ~~~   ** Check Sizing:Zone and ZoneControl:Thermostat inputs.\n   ** Warning ** Calculated design cooling load for zone=THERMAL ZONE: STAIR_2202 is zero.\n   **   ~~~   ** Check Sizing:Zone and ZoneControl:Thermostat inputs.\n   ** Warning ** Calculated design heating load for zone=THERMAL ZONE: STAIR_2202 is zero.\n   **   ~~~   ** Check Sizing:Zone and ZoneControl:Thermostat inputs.\n   ** Warning ** Calculated design cooling load for zone=THERMAL ZONE: STAIR_2301 is zero.\n   **   ~~~   ** Check Sizing:Zone and ZoneControl:Thermostat inputs.\n   ** Warning ** Calculated design heating load for zone=THERMAL ZONE: STAIR_2301 is zero.\n   **   ~~~   ** Check Sizing:Zone and ZoneControl:Thermostat inputs.\n   ** Warning ** Calculated design cooling load for zone=THERMAL ZONE: STAIR_2302 is zero.\n   **   ~~~   ** Check Sizing:Zone and ZoneControl:Thermostat inputs.\n   ** Warning ** Calculated design heating load for zone=THERMAL ZONE: STAIR_2302 is zero.\n   **   ~~~   ** Check Sizing:Zone and ZoneControl:Thermostat inputs.\n   ** Warning ** Calculated design cooling load for zone=THERMAL ZONE: STAIR_P101 is zero.\n   **   ~~~   ** Check Sizing:Zone and ZoneControl:Thermostat inputs.\n   ** Warning ** Calculated design heating load for zone=THERMAL ZONE: STAIR_P101 is zero.\n   **   ~~~   ** Check Sizing:Zone and ZoneControl:Thermostat inputs.\n   ** Warning ** Calculated design cooling load for zone=THERMAL ZONE: STAIR_P102 is zero.\n   **   ~~~   ** Check Sizing:Zone and ZoneControl:Thermostat inputs.\n   ** Warning ** Calculated design heating load for zone=THERMAL ZONE: STAIR_P102 is zero.\n   **   ~~~   ** Check Sizing:Zone and ZoneControl:Thermostat inputs.\n   ** Warning ** Calculated design cooling load for zone=THERMAL ZONE: STAIR_P201 is zero.\n   **   ~~~   ** Check Sizing:Zone and ZoneControl:Thermostat inputs.\n   ** Warning ** Calculated design heating load for zone=THERMAL ZONE: STAIR_P201 is zero.\n   **   ~~~   ** Check Sizing:Zone and ZoneControl:Thermostat inputs.\n   ** Warning ** Calculated design cooling load for zone=THERMAL ZONE: STAIR_P202 is zero.\n   **   ~~~   ** Check Sizing:Zone and ZoneControl:Thermostat inputs.\n   ** Warning ** Calculated design heating load for zone=THERMAL ZONE: STAIR_P202 is zero.\n   **   ~~~   ** Check Sizing:Zone and ZoneControl:Thermostat inputs.\n   ** Warning ** Calculated design cooling load for zone=THERMAL ZONE: STOR_0100 is zero.\n   **   ~~~   ** Check Sizing:Zone and ZoneControl:Thermostat inputs.\n   ** Warning ** Calculated design heating load for zone=THERMAL ZONE: STOR_0100 is zero.\n   **   ~~~   ** Check Sizing:Zone and ZoneControl:Thermostat inputs.\n   ** Warning ** Calculated design cooling load for zone=THERMAL ZONE: STOR_0200 is zero.\n   **   ~~~   ** Check Sizing:Zone and ZoneControl:Thermostat inputs.\n   ** Warning ** Calculated design heating load for zone=THERMAL ZONE: STOR_0200 is zero.\n   **   ~~~   ** Check Sizing:Zone and ZoneControl:Thermostat inputs.\n   ** Warning ** Calculated design cooling load for zone=THERMAL ZONE: STOR_0300 is zero.\n   **   ~~~   ** Check Sizing:Zone and ZoneControl:Thermostat inputs.\n   ** Warning ** Calculated design heating load for zone=THERMAL ZONE: STOR_0300 is zero.\n   **   ~~~   ** Check Sizing:Zone and ZoneControl:Thermostat inputs.\n   ** Warning ** Calculated design cooling load for zone=THERMAL ZONE: STOR_0400 is zero.\n   **   ~~~   ** Check Sizing:Zone and ZoneControl:Thermostat inputs.\n   ** Warning ** Calculated design heating load for zone=THERMAL ZONE: STOR_0400 is zero.\n   **   ~~~   ** Check Sizing:Zone and ZoneControl:Thermostat inputs.\n   ** Warning ** Calculated design cooling load for zone=THERMAL ZONE: STOR_0500 is zero.\n   **   ~~~   ** Check Sizing:Zone and ZoneControl:Thermostat inputs.\n   ** Warning ** Calculated design heating load for zone=THERMAL ZONE: STOR_0500 is zero.\n   **   ~~~   ** Check Sizing:Zone and ZoneControl:Thermostat inputs.\n   ** Warning ** Calculated design cooling load for zone=THERMAL ZONE: STOR_2100 is zero.\n   **   ~~~   ** Check Sizing:Zone and ZoneControl:Thermostat inputs.\n   ** Warning ** Calculated design heating load for zone=THERMAL ZONE: STOR_2100 is zero.\n   **   ~~~   ** Check Sizing:Zone and ZoneControl:Thermostat inputs.\n   ** Warning ** Calculated design cooling load for zone=THERMAL ZONE: STOR_P100 is zero.\n   **   ~~~   ** Check Sizing:Zone and ZoneControl:Thermostat inputs.\n   ** Warning ** Calculated design heating load for zone=THERMAL ZONE: STOR_P100 is zero.\n   **   ~~~   ** Check Sizing:Zone and ZoneControl:Thermostat inputs.\n   ** Warning ** Calculated design cooling load for zone=THERMAL ZONE: STOR_P200 is zero.\n   **   ~~~   ** Check Sizing:Zone and ZoneControl:Thermostat inputs.\n   ** Warning ** Calculated design heating load for zone=THERMAL ZONE: STOR_P200 is zero.\n   **   ~~~   ** Check Sizing:Zone and ZoneControl:Thermostat inputs.\n   ** Warning ** Calculated design cooling load for zone=THERMAL ZONE: TRASH_0200 is zero.\n   **   ~~~   ** Check Sizing:Zone and ZoneControl:Thermostat inputs.\n   ** Warning ** Calculated design heating load for zone=THERMAL ZONE: TRASH_0200 is zero.\n   **   ~~~   ** Check Sizing:Zone and ZoneControl:Thermostat inputs.\n   ** Warning ** Calculated design cooling load for zone=THERMAL ZONE: TRASH_0300 is zero.\n   **   ~~~   ** Check Sizing:Zone and ZoneControl:Thermostat inputs.\n   ** Warning ** Calculated design heating load for zone=THERMAL ZONE: TRASH_0300 is zero.\n   **   ~~~   ** Check Sizing:Zone and ZoneControl:Thermostat inputs.\n   ** Warning ** Calculated design cooling load for zone=THERMAL ZONE: TRASH_0400 is zero.\n   **   ~~~   ** Check Sizing:Zone and ZoneControl:Thermostat inputs.\n   ** Warning ** Calculated design heating load for zone=THERMAL ZONE: TRASH_0400 is zero.\n   **   ~~~   ** Check Sizing:Zone and ZoneControl:Thermostat inputs.\n   ** Warning ** Calculated design cooling load for zone=THERMAL ZONE: TRASH_0500 is zero.\n   **   ~~~   ** Check Sizing:Zone and ZoneControl:Thermostat inputs.\n   ** Warning ** Calculated design heating load for zone=THERMAL ZONE: TRASH_0500 is zero.\n   **   ~~~   ** Check Sizing:Zone and ZoneControl:Thermostat inputs.\n   ** Warning ** Calculated design cooling load for zone=THERMAL ZONE: TRASH_2100 is zero.\n   **   ~~~   ** Check Sizing:Zone and ZoneControl:Thermostat inputs.\n   ** Warning ** Calculated design heating load for zone=THERMAL ZONE: TRASH_2100 is zero.\n   **   ~~~   ** Check Sizing:Zone and ZoneControl:Thermostat inputs.\n   ** Warning ** Calculated design cooling load for zone=THERMAL ZONE: TRASH_2200 is zero.\n   **   ~~~   ** Check Sizing:Zone and ZoneControl:Thermostat inputs.\n   ** Warning ** Calculated design heating load for zone=THERMAL ZONE: TRASH_2200 is zero.\n   **   ~~~   ** Check Sizing:Zone and ZoneControl:Thermostat inputs.\n   ** Warning ** Calculated design cooling load for zone=THERMAL ZONE: XFMR_0201 is zero.\n   **   ~~~   ** Check Sizing:Zone and ZoneControl:Thermostat inputs.\n   ** Warning ** Calculated design cooling load for zone=THERMAL ZONE: XFMR_0401 is zero.\n   **   ~~~   ** Check Sizing:Zone and ZoneControl:Thermostat inputs.\n   ** Warning ** UpdateZoneSizing: Heating supply air temperature (calculated) within 5C of zone temperature\n   **   ~~~   ** ...check zone thermostat set point and design supply air temperatures\n   **   ~~~   ** ...zone name = THERMAL ZONE: ELEV CONTROL_2301\n   **   ~~~   ** ...design heating load         = 1961.75 W\n   **   ~~~   ** ...thermostat set point temp   = 0.000 C\n   **   ~~~   ** ...zone temperature            = 29.441 C\n   **   ~~~   ** ...supply air temperature      = 32.222 C\n   **   ~~~   ** ...temperature difference      = 2.78171 C\n   **   ~~~   ** ...calculated volume flow rate = 0.58265 m3/s\n   **   ~~~   ** ...calculated mass flow rate   = 0.69160 kg/s\n   ** Warning ** UpdateZoneSizing: Heating supply air temperature (calculated) within 5C of zone temperature\n   **   ~~~   ** ...check zone thermostat set point and design supply air temperatures\n   **   ~~~   ** ...zone name = THERMAL ZONE: ELEV CONTROL_2302\n   **   ~~~   ** ...design heating load         = 1299.30 W\n   **   ~~~   ** ...thermostat set point temp   = 0.000 C\n   **   ~~~   ** ...zone temperature            = 29.443 C\n   **   ~~~   ** ...supply air temperature      = 32.222 C\n   **   ~~~   ** ...temperature difference      = 2.77961 C\n   **   ~~~   ** ...calculated volume flow rate = 0.38619 m3/s\n   **   ~~~   ** ...calculated mass flow rate   = 0.45840 kg/s\n   ** Warning ** UpdateZoneSizing: Heating supply air temperature (calculated) within 5C of zone temperature\n   **   ~~~   ** ...check zone thermostat set point and design supply air temperatures\n   **   ~~~   ** ...zone name = THERMAL ZONE: ELEV LOBBY_2300\n   **   ~~~   ** ...design heating load         = 1623.87 W\n   **   ~~~   ** ...thermostat set point temp   = 0.000 C\n   **   ~~~   ** ...zone temperature            = 29.444 C\n   **   ~~~   ** ...supply air temperature      = 32.222 C\n   **   ~~~   ** ...temperature difference      = 2.77870 C\n   **   ~~~   ** ...calculated volume flow rate = 0.48282 m3/s\n   **   ~~~   ** ...calculated mass flow rate   = 0.57310 kg/s\n   ** Warning ** UpdateZoneSizing: Heating supply air temperature (calculated) within 5C of zone temperature\n   **   ~~~   ** ...check zone thermostat set point and design supply air temperatures\n   **   ~~~   ** ...zone name = THERMAL ZONE: XFMR_0201\n   **   ~~~   ** ...design heating load         = 793.78 W\n   **   ~~~   ** ...thermostat set point temp   = 0.000 C\n   **   ~~~   ** ...zone temperature            = 29.444 C\n   **   ~~~   ** ...supply air temperature      = 32.222 C\n   **   ~~~   ** ...temperature difference      = 2.77778 C\n   **   ~~~   ** ...calculated volume flow rate = 0.23609 m3/s\n   **   ~~~   ** ...calculated mass flow rate   = 0.28024 kg/s\n   ** Warning ** UpdateZoneSizing: Heating supply air temperature (calculated) within 5C of zone temperature\n   **   ~~~   ** ...check zone thermostat set point and design supply air temperatures\n   **   ~~~   ** ...zone name = THERMAL ZONE: XFMR_0401\n   **   ~~~   ** ...design heating load         = 3152.20 W\n   **   ~~~   ** ...thermostat set point temp   = 0.000 C\n   **   ~~~   ** ...zone temperature            = 29.444 C\n   **   ~~~   ** ...supply air temperature      = 32.222 C\n   **   ~~~   ** ...temperature difference      = 2.77778 C\n   **   ~~~   ** ...calculated volume flow rate = 0.93754 m3/s\n   **   ~~~   ** ...calculated mass flow rate   = 1.11286 kg/s\n   ** Warning ** GetDXCoils: Coil:Cooling:DX:SingleSpeed=\"COIL COOLING DX SINGLE SPEED 1\" curve values\n   **   ~~~   ** ... Total Cooling Capacity Function of Temperature Curve Name = CURVE BIQUADRATIC 1 output is not equal to 1.0 (+ or - 10%) at rated conditions.\n   **   ~~~   ** ... Curve output at rated conditions = 1.437\n   ** Warning ** GetDXCoils: Coil:Cooling:DX:SingleSpeed=\"COIL COOLING DX SINGLE SPEED 2\" curve values\n   **   ~~~   ** ... Total Cooling Capacity Function of Temperature Curve Name = CURVE BIQUADRATIC 3 output is not equal to 1.0 (+ or - 10%) at rated conditions.\n   **   ~~~   ** ... Curve output at rated conditions = 1.437\n   ** Warning ** GetDXCoils: Coil:Cooling:DX:SingleSpeed=\"COIL COOLING DX SINGLE SPEED 3\" curve values\n   **   ~~~   ** ... Total Cooling Capacity Function of Temperature Curve Name = CURVE BIQUADRATIC 5 output is not equal to 1.0 (+ or - 10%) at rated conditions.\n   **   ~~~   ** ... Curve output at rated conditions = 1.437\n   ** Warning ** GetDXCoils: Coil:Cooling:DX:SingleSpeed=\"COIL COOLING DX SINGLE SPEED 4\" curve values\n   **   ~~~   ** ... Total Cooling Capacity Function of Temperature Curve Name = CURVE BIQUADRATIC 7 output is not equal to 1.0 (+ or - 10%) at rated conditions.\n   **   ~~~   ** ... Curve output at rated conditions = 1.437\n   ** Warning ** GetDXCoils: Coil:Cooling:DX:SingleSpeed=\"COIL COOLING DX SINGLE SPEED 5\" curve values\n   **   ~~~   ** ... Total Cooling Capacity Function of Temperature Curve Name = CURVE BIQUADRATIC 9 output is not equal to 1.0 (+ or - 10%) at rated conditions.\n   **   ~~~   ** ... Curve output at rated conditions = 1.437\n   ** Warning ** GetDXCoils: Coil:Cooling:DX:SingleSpeed=\"COIL COOLING DX SINGLE SPEED 6\" curve values\n   **   ~~~   ** ... Total Cooling Capacity Function of Temperature Curve Name = CURVE BIQUADRATIC 11 output is not equal to 1.0 (+ or - 10%) at rated conditions.\n   **   ~~~   ** ... Curve output at rated conditions = 1.437\n   ** Warning ** GetDXCoils: Coil:Cooling:DX:SingleSpeed=\"COIL COOLING DX SINGLE SPEED 7\" curve values\n   **   ~~~   ** ... Total Cooling Capacity Function of Temperature Curve Name = CURVE BIQUADRATIC 13 output is not equal to 1.0 (+ or - 10%) at rated conditions.\n   **   ~~~   ** ... Curve output at rated conditions = 1.437\n   ** Warning ** GetDXCoils: Coil:Cooling:DX:SingleSpeed=\"COIL COOLING DX SINGLE SPEED 8\" curve values\n   **   ~~~   ** ... Total Cooling Capacity Function of Temperature Curve Name = CURVE BIQUADRATIC 15 output is not equal to 1.0 (+ or - 10%) at rated conditions.\n   **   ~~~   ** ... Curve output at rated conditions = 1.437\n   ** Warning ** GetDXCoils: Coil:Cooling:DX:SingleSpeed=\"COIL COOLING DX SINGLE SPEED 9\" curve values\n   **   ~~~   ** ... Total Cooling Capacity Function of Temperature Curve Name = CURVE BIQUADRATIC 17 output is not equal to 1.0 (+ or - 10%) at rated conditions.\n   **   ~~~   ** ... Curve output at rated conditions = 1.437\n   ** Warning ** GetDXCoils: Coil:Cooling:DX:SingleSpeed=\"COIL COOLING DX SINGLE SPEED 10\" curve values\n   **   ~~~   ** ... Total Cooling Capacity Function of Temperature Curve Name = CURVE BIQUADRATIC 19 output is not equal to 1.0 (+ or - 10%) at rated conditions.\n   **   ~~~   ** ... Curve output at rated conditions = 1.437\n   ** Warning ** GetDXCoils: Coil:Cooling:DX:SingleSpeed=\"COIL COOLING DX SINGLE SPEED 11\" curve values\n   **   ~~~   ** ... Total Cooling Capacity Function of Temperature Curve Name = CURVE BIQUADRATIC 21 output is not equal to 1.0 (+ or - 10%) at rated conditions.\n   **   ~~~   ** ... Curve output at rated conditions = 1.437\n   ** Warning ** GetDXCoils: Coil:Cooling:DX:SingleSpeed=\"COIL COOLING DX SINGLE SPEED 12\" curve values\n   **   ~~~   ** ... Total Cooling Capacity Function of Temperature Curve Name = CURVE BIQUADRATIC 23 output is not equal to 1.0 (+ or - 10%) at rated conditions.\n   **   ~~~   ** ... Curve output at rated conditions = 1.437\n   ** Warning ** GetDXCoils: Coil:Cooling:DX:SingleSpeed=\"COIL COOLING DX SINGLE SPEED 13\" curve values\n   **   ~~~   ** ... Total Cooling Capacity Function of Temperature Curve Name = CURVE BIQUADRATIC 25 output is not equal to 1.0 (+ or - 10%) at rated conditions.\n   **   ~~~   ** ... Curve output at rated conditions = 1.437\n   ** Warning ** GetDXCoils: Coil:Cooling:DX:SingleSpeed=\"COIL COOLING DX SINGLE SPEED 14\" curve values\n   **   ~~~   ** ... Total Cooling Capacity Function of Temperature Curve Name = CURVE BIQUADRATIC 27 output is not equal to 1.0 (+ or - 10%) at rated conditions.\n   **   ~~~   ** ... Curve output at rated conditions = 1.437\n   ** Warning ** GetDXCoils: Coil:Cooling:DX:SingleSpeed=\"COIL COOLING DX SINGLE SPEED 15\" curve values\n   **   ~~~   ** ... Total Cooling Capacity Function of Temperature Curve Name = CURVE BIQUADRATIC 29 output is not equal to 1.0 (+ or - 10%) at rated conditions.\n   **   ~~~   ** ... Curve output at rated conditions = 1.437\n   ** Warning ** GetDXCoils: Coil:Cooling:DX:SingleSpeed=\"COIL COOLING DX SINGLE SPEED 16\" curve values\n   **   ~~~   ** ... Total Cooling Capacity Function of Temperature Curve Name = CURVE BIQUADRATIC 31 output is not equal to 1.0 (+ or - 10%) at rated conditions.\n   **   ~~~   ** ... Curve output at rated conditions = 1.437\n   ** Warning ** GetDXCoils: Coil:Cooling:DX:SingleSpeed=\"COIL COOLING DX SINGLE SPEED 17\" curve values\n   **   ~~~   ** ... Total Cooling Capacity Function of Temperature Curve Name = CURVE BIQUADRATIC 33 output is not equal to 1.0 (+ or - 10%) at rated conditions.\n   **   ~~~   ** ... Curve output at rated conditions = 1.437\n   ** Warning ** GetDXCoils: Coil:Cooling:DX:SingleSpeed=\"COIL COOLING DX SINGLE SPEED 18\" curve values\n   **   ~~~   ** ... Total Cooling Capacity Function of Temperature Curve Name = CURVE BIQUADRATIC 35 output is not equal to 1.0 (+ or - 10%) at rated conditions.\n   **   ~~~   ** ... Curve output at rated conditions = 1.437\n   ** Warning ** GetDXCoils: Coil:Cooling:DX:SingleSpeed=\"COIL COOLING DX SINGLE SPEED 19\" curve values\n   **   ~~~   ** ... Total Cooling Capacity Function of Temperature Curve Name = CURVE BIQUADRATIC 37 output is not equal to 1.0 (+ or - 10%) at rated conditions.\n   **   ~~~   ** ... Curve output at rated conditions = 1.437\n   ** Warning ** GetDXCoils: Coil:Cooling:DX:SingleSpeed=\"COIL COOLING DX SINGLE SPEED 20\" curve values\n   **   ~~~   ** ... Total Cooling Capacity Function of Temperature Curve Name = CURVE BIQUADRATIC 39 output is not equal to 1.0 (+ or - 10%) at rated conditions.\n   **   ~~~   ** ... Curve output at rated conditions = 1.437\n   ** Warning ** GetDXCoils: Coil:Cooling:DX:SingleSpeed=\"COIL COOLING DX SINGLE SPEED 21\" curve values\n   **   ~~~   ** ... Total Cooling Capacity Function of Temperature Curve Name = CURVE BIQUADRATIC 41 output is not equal to 1.0 (+ or - 10%) at rated conditions.\n   **   ~~~   ** ... Curve output at rated conditions = 1.437\n   ** Warning ** GetDXCoils: Coil:Cooling:DX:SingleSpeed=\"COIL COOLING DX SINGLE SPEED 22\" curve values\n   **   ~~~   ** ... Total Cooling Capacity Function of Temperature Curve Name = CURVE BIQUADRATIC 43 output is not equal to 1.0 (+ or - 10%) at rated conditions.\n   **   ~~~   ** ... Curve output at rated conditions = 1.437\n   ** Warning ** GetDXCoils: Coil:Cooling:DX:SingleSpeed=\"COIL COOLING DX SINGLE SPEED 23\" curve values\n   **   ~~~   ** ... Total Cooling Capacity Function of Temperature Curve Name = CURVE BIQUADRATIC 45 output is not equal to 1.0 (+ or - 10%) at rated conditions.\n   **   ~~~   ** ... Curve output at rated conditions = 1.437\n   ** Warning ** GetDXCoils: Coil:Cooling:DX:SingleSpeed=\"COIL COOLING DX SINGLE SPEED 24\" curve values\n   **   ~~~   ** ... Total Cooling Capacity Function of Temperature Curve Name = CURVE BIQUADRATIC 47 output is not equal to 1.0 (+ or - 10%) at rated conditions.\n   **   ~~~   ** ... Curve output at rated conditions = 1.437\n   ** Warning ** GetDXCoils: Coil:Cooling:DX:SingleSpeed=\"COIL COOLING DX SINGLE SPEED 25\" curve values\n   **   ~~~   ** ... Total Cooling Capacity Function of Temperature Curve Name = CURVE BIQUADRATIC 49 output is not equal to 1.0 (+ or - 10%) at rated conditions.\n   **   ~~~   ** ... Curve output at rated conditions = 1.437\n   ** Warning ** GetDXCoils: Coil:Cooling:DX:SingleSpeed=\"COIL COOLING DX SINGLE SPEED 26\" curve values\n   **   ~~~   ** ... Total Cooling Capacity Function of Temperature Curve Name = CURVE BIQUADRATIC 51 output is not equal to 1.0 (+ or - 10%) at rated conditions.\n   **   ~~~   ** ... Curve output at rated conditions = 1.437\n   ** Warning ** GetDXCoils: Coil:Cooling:DX:SingleSpeed=\"COIL COOLING DX SINGLE SPEED 27\" curve values\n   **   ~~~   ** ... Total Cooling Capacity Function of Temperature Curve Name = CURVE BIQUADRATIC 53 output is not equal to 1.0 (+ or - 10%) at rated conditions.\n   **   ~~~   ** ... Curve output at rated conditions = 1.437\n   ** Warning ** GetDXCoils: Coil:Cooling:DX:SingleSpeed=\"COIL COOLING DX SINGLE SPEED 28\" curve values\n   **   ~~~   ** ... Total Cooling Capacity Function of Temperature Curve Name = CURVE BIQUADRATIC 55 output is not equal to 1.0 (+ or - 10%) at rated conditions.\n   **   ~~~   ** ... Curve output at rated conditions = 1.437\n   ** Warning ** GetDXCoils: Coil:Cooling:DX:SingleSpeed=\"COIL COOLING DX SINGLE SPEED 29\" curve values\n   **   ~~~   ** ... Total Cooling Capacity Function of Temperature Curve Name = CURVE BIQUADRATIC 57 output is not equal to 1.0 (+ or - 10%) at rated conditions.\n   **   ~~~   ** ... Curve output at rated conditions = 1.437\n   ** Warning ** GetDXCoils: Coil:Cooling:DX:SingleSpeed=\"COIL COOLING DX SINGLE SPEED 30\" curve values\n   **   ~~~   ** ... Total Cooling Capacity Function of Temperature Curve Name = CURVE BIQUADRATIC 59 output is not equal to 1.0 (+ or - 10%) at rated conditions.\n   **   ~~~   ** ... Curve output at rated conditions = 1.437\n   ** Warning ** GetDXCoils: Coil:Cooling:DX:SingleSpeed=\"COIL COOLING DX SINGLE SPEED 31\" curve values\n   **   ~~~   ** ... Total Cooling Capacity Function of Temperature Curve Name = CURVE BIQUADRATIC 61 output is not equal to 1.0 (+ or - 10%) at rated conditions.\n   **   ~~~   ** ... Curve output at rated conditions = 1.437\n   ** Warning ** GetDXCoils: Coil:Cooling:DX:SingleSpeed=\"COIL COOLING DX SINGLE SPEED 32\" curve values\n   **   ~~~   ** ... Total Cooling Capacity Function of Temperature Curve Name = CURVE BIQUADRATIC 63 output is not equal to 1.0 (+ or - 10%) at rated conditions.\n   **   ~~~   ** ... Curve output at rated conditions = 1.437\n   ** Warning ** GetDXCoils: Coil:Cooling:DX:SingleSpeed=\"COIL COOLING DX SINGLE SPEED 33\" curve values\n   **   ~~~   ** ... Total Cooling Capacity Function of Temperature Curve Name = CURVE BIQUADRATIC 65 output is not equal to 1.0 (+ or - 10%) at rated conditions.\n   **   ~~~   ** ... Curve output at rated conditions = 1.437\n   ** Warning ** GetDXCoils: Coil:Cooling:DX:SingleSpeed=\"COIL COOLING DX SINGLE SPEED 34\" curve values\n   **   ~~~   ** ... Total Cooling Capacity Function of Temperature Curve Name = CURVE BIQUADRATIC 67 output is not equal to 1.0 (+ or - 10%) at rated conditions.\n   **   ~~~   ** ... Curve output at rated conditions = 1.437\n   ** Warning ** GetDXCoils: Coil:Cooling:DX:SingleSpeed=\"COIL COOLING DX SINGLE SPEED 35\" curve values\n   **   ~~~   ** ... Total Cooling Capacity Function of Temperature Curve Name = CURVE BIQUADRATIC 69 output is not equal to 1.0 (+ or - 10%) at rated conditions.\n   **   ~~~   ** ... Curve output at rated conditions = 1.437\n   ** Warning ** GetDXCoils: Coil:Cooling:DX:SingleSpeed=\"COIL COOLING DX SINGLE SPEED 36\" curve values\n   **   ~~~   ** ... Total Cooling Capacity Function of Temperature Curve Name = CURVE BIQUADRATIC 71 output is not equal to 1.0 (+ or - 10%) at rated conditions.\n   **   ~~~   ** ... Curve output at rated conditions = 1.437\n   ** Warning ** GetDXCoils: Coil:Cooling:DX:SingleSpeed=\"COIL COOLING DX SINGLE SPEED 37\" curve values\n   **   ~~~   ** ... Total Cooling Capacity Function of Temperature Curve Name = CURVE BIQUADRATIC 73 output is not equal to 1.0 (+ or - 10%) at rated conditions.\n   **   ~~~   ** ... Curve output at rated conditions = 1.437\n   ** Warning ** GetDXCoils: Coil:Cooling:DX:SingleSpeed=\"COIL COOLING DX SINGLE SPEED 38\" curve values\n   **   ~~~   ** ... Total Cooling Capacity Function of Temperature Curve Name = CURVE BIQUADRATIC 75 output is not equal to 1.0 (+ or - 10%) at rated conditions.\n   **   ~~~   ** ... Curve output at rated conditions = 1.437\n   ** Warning ** GetDXCoils: Coil:Cooling:DX:SingleSpeed=\"COIL COOLING DX SINGLE SPEED 39\" curve values\n   **   ~~~   ** ... Total Cooling Capacity Function of Temperature Curve Name = CURVE BIQUADRATIC 77 output is not equal to 1.0 (+ or - 10%) at rated conditions.\n   **   ~~~   ** ... Curve output at rated conditions = 1.437\n   ** Warning ** GetDXCoils: Coil:Cooling:DX:SingleSpeed=\"COIL COOLING DX SINGLE SPEED 40\" curve values\n   **   ~~~   ** ... Total Cooling Capacity Function of Temperature Curve Name = CURVE BIQUADRATIC 79 output is not equal to 1.0 (+ or - 10%) at rated conditions.\n   **   ~~~   ** ... Curve output at rated conditions = 1.437\n   ** Warning ** GetDXCoils: Coil:Cooling:DX:SingleSpeed=\"COIL COOLING DX SINGLE SPEED 41\" curve values\n   **   ~~~   ** ... Total Cooling Capacity Function of Temperature Curve Name = CURVE BIQUADRATIC 81 output is not equal to 1.0 (+ or - 10%) at rated conditions.\n   **   ~~~   ** ... Curve output at rated conditions = 1.437\n   ** Warning ** GetDXCoils: Coil:Cooling:DX:SingleSpeed=\"COIL COOLING DX SINGLE SPEED 42\" curve values\n   **   ~~~   ** ... Total Cooling Capacity Function of Temperature Curve Name = CURVE BIQUADRATIC 83 output is not equal to 1.0 (+ or - 10%) at rated conditions.\n   **   ~~~   ** ... Curve output at rated conditions = 1.437\n   ** Warning ** GetDXCoils: Coil:Cooling:DX:SingleSpeed=\"COIL COOLING DX SINGLE SPEED 43\" curve values\n   **   ~~~   ** ... Total Cooling Capacity Function of Temperature Curve Name = CURVE BIQUADRATIC 85 output is not equal to 1.0 (+ or - 10%) at rated conditions.\n   **   ~~~   ** ... Curve output at rated conditions = 1.437\n   ** Warning ** GetDXCoils: Coil:Cooling:DX:SingleSpeed=\"COIL COOLING DX SINGLE SPEED 44\" curve values\n   **   ~~~   ** ... Total Cooling Capacity Function of Temperature Curve Name = CURVE BIQUADRATIC 87 output is not equal to 1.0 (+ or - 10%) at rated conditions.\n   **   ~~~   ** ... Curve output at rated conditions = 1.437\n   ** Warning ** GetDXCoils: Coil:Cooling:DX:SingleSpeed=\"COIL COOLING DX SINGLE SPEED 45\" curve values\n   **   ~~~   ** ... Total Cooling Capacity Function of Temperature Curve Name = CURVE BIQUADRATIC 89 output is not equal to 1.0 (+ or - 10%) at rated conditions.\n   **   ~~~   ** ... Curve output at rated conditions = 1.437\n   ** Warning ** GetDXCoils: Coil:Cooling:DX:SingleSpeed=\"COIL COOLING DX SINGLE SPEED 46\" curve values\n   **   ~~~   ** ... Total Cooling Capacity Function of Temperature Curve Name = CURVE BIQUADRATIC 91 output is not equal to 1.0 (+ or - 10%) at rated conditions.\n   **   ~~~   ** ... Curve output at rated conditions = 1.437\n   ** Warning ** GetDXCoils: Coil:Cooling:DX:SingleSpeed=\"COIL COOLING DX SINGLE SPEED 47\" curve values\n   **   ~~~   ** ... Total Cooling Capacity Function of Temperature Curve Name = CURVE BIQUADRATIC 93 output is not equal to 1.0 (+ or - 10%) at rated conditions.\n   **   ~~~   ** ... Curve output at rated conditions = 1.437\n   ** Warning ** GetDXCoils: Coil:Cooling:DX:SingleSpeed=\"COIL COOLING DX SINGLE SPEED 48\" curve values\n   **   ~~~   ** ... Total Cooling Capacity Function of Temperature Curve Name = CURVE BIQUADRATIC 95 output is not equal to 1.0 (+ or - 10%) at rated conditions.\n   **   ~~~   ** ... Curve output at rated conditions = 1.437\n   ** Warning ** GetDXCoils: Coil:Cooling:DX:SingleSpeed=\"COIL COOLING DX SINGLE SPEED 49\" curve values\n   **   ~~~   ** ... Total Cooling Capacity Function of Temperature Curve Name = CURVE BIQUADRATIC 97 output is not equal to 1.0 (+ or - 10%) at rated conditions.\n   **   ~~~   ** ... Curve output at rated conditions = 1.437\n   ** Warning ** GetDXCoils: Coil:Cooling:DX:SingleSpeed=\"COIL COOLING DX SINGLE SPEED 50\" curve values\n   **   ~~~   ** ... Total Cooling Capacity Function of Temperature Curve Name = CURVE BIQUADRATIC 99 output is not equal to 1.0 (+ or - 10%) at rated conditions.\n   **   ~~~   ** ... Curve output at rated conditions = 1.437\n   ** Warning ** GetDXCoils: Coil:Cooling:DX:SingleSpeed=\"COIL COOLING DX SINGLE SPEED 51\" curve values\n   **   ~~~   ** ... Total Cooling Capacity Function of Temperature Curve Name = CURVE BIQUADRATIC 101 output is not equal to 1.0 (+ or - 10%) at rated conditions.\n   **   ~~~   ** ... Curve output at rated conditions = 1.437\n   ** Warning ** GetDXCoils: Coil:Cooling:DX:SingleSpeed=\"COIL COOLING DX SINGLE SPEED 52\" curve values\n   **   ~~~   ** ... Total Cooling Capacity Function of Temperature Curve Name = CURVE BIQUADRATIC 103 output is not equal to 1.0 (+ or - 10%) at rated conditions.\n   **   ~~~   ** ... Curve output at rated conditions = 1.437\n   ** Warning ** GetDXCoils: Coil:Cooling:DX:SingleSpeed=\"COIL COOLING DX SINGLE SPEED 53\" curve values\n   **   ~~~   ** ... Total Cooling Capacity Function of Temperature Curve Name = CURVE BIQUADRATIC 105 output is not equal to 1.0 (+ or - 10%) at rated conditions.\n   **   ~~~   ** ... Curve output at rated conditions = 1.437\n   ** Warning ** GetDXCoils: Coil:Cooling:DX:SingleSpeed=\"COIL COOLING DX SINGLE SPEED 54\" curve values\n   **   ~~~   ** ... Total Cooling Capacity Function of Temperature Curve Name = CURVE BIQUADRATIC 107 output is not equal to 1.0 (+ or - 10%) at rated conditions.\n   **   ~~~   ** ... Curve output at rated conditions = 1.437\n   ** Warning ** GetDXCoils: Coil:Cooling:DX:SingleSpeed=\"COIL COOLING DX SINGLE SPEED 55\" curve values\n   **   ~~~   ** ... Total Cooling Capacity Function of Temperature Curve Name = CURVE BIQUADRATIC 109 output is not equal to 1.0 (+ or - 10%) at rated conditions.\n   **   ~~~   ** ... Curve output at rated conditions = 1.437\n   ** Warning ** GetDXCoils: Coil:Cooling:DX:SingleSpeed=\"COIL COOLING DX SINGLE SPEED 56\" curve values\n   **   ~~~   ** ... Total Cooling Capacity Function of Temperature Curve Name = CURVE BIQUADRATIC 111 output is not equal to 1.0 (+ or - 10%) at rated conditions.\n   **   ~~~   ** ... Curve output at rated conditions = 1.437\n   ** Warning ** GetDXCoils: Coil:Cooling:DX:SingleSpeed=\"COIL COOLING DX SINGLE SPEED 57\" curve values\n   **   ~~~   ** ... Total Cooling Capacity Function of Temperature Curve Name = CURVE BIQUADRATIC 113 output is not equal to 1.0 (+ or - 10%) at rated conditions.\n   **   ~~~   ** ... Curve output at rated conditions = 1.437\n   ** Warning ** GetDXCoils: Coil:Cooling:DX:SingleSpeed=\"COIL COOLING DX SINGLE SPEED 58\" curve values\n   **   ~~~   ** ... Total Cooling Capacity Function of Temperature Curve Name = CURVE BIQUADRATIC 115 output is not equal to 1.0 (+ or - 10%) at rated conditions.\n   **   ~~~   ** ... Curve output at rated conditions = 1.437\n   ** Warning ** GetDXCoils: Coil:Cooling:DX:SingleSpeed=\"COIL COOLING DX SINGLE SPEED 59\" curve values\n   **   ~~~   ** ... Total Cooling Capacity Function of Temperature Curve Name = CURVE BIQUADRATIC 117 output is not equal to 1.0 (+ or - 10%) at rated conditions.\n   **   ~~~   ** ... Curve output at rated conditions = 1.437\n   ** Warning ** GetDXCoils: Coil:Cooling:DX:SingleSpeed=\"COIL COOLING DX SINGLE SPEED 60\" curve values\n   **   ~~~   ** ... Total Cooling Capacity Function of Temperat
[...]
erature Curve Name = CURVE BIQUADRATIC 213 output is not equal to 1.0 (+ or - 10%) at rated conditions.\n   **   ~~~   ** ... Curve output at rated conditions = 1.437\n   ** Warning ** GetDXCoils: Coil:Cooling:DX:SingleSpeed=\"COIL COOLING DX SINGLE SPEED 108\" curve values\n   **   ~~~   ** ... Total Cooling Capacity Function of Temperature Curve Name = CURVE BIQUADRATIC 215 output is not equal to 1.0 (+ or - 10%) at rated conditions.\n   **   ~~~   ** ... Curve output at rated conditions = 1.437\n   ** Warning ** GetDXCoils: Coil:Cooling:DX:SingleSpeed=\"COIL COOLING DX SINGLE SPEED 109\" curve values\n   **   ~~~   ** ... Total Cooling Capacity Function of Temperature Curve Name = CURVE BIQUADRATIC 217 output is not equal to 1.0 (+ or - 10%) at rated conditions.\n   **   ~~~   ** ... Curve output at rated conditions = 1.437\n   ** Warning ** GetDXCoils: Coil:Cooling:DX:SingleSpeed=\"COIL COOLING DX SINGLE SPEED 110\" curve values\n   **   ~~~   ** ... Total Cooling Capacity Function of Temperature Curve Name = CURVE BIQUADRATIC 219 output is not equal to 1.0 (+ or - 10%) at rated conditions.\n   **   ~~~   ** ... Curve output at rated conditions = 1.437\n   ** Warning ** GetDXCoils: Coil:Cooling:DX:SingleSpeed=\"COIL COOLING DX SINGLE SPEED 111\" curve values\n   **   ~~~   ** ... Total Cooling Capacity Function of Temperature Curve Name = CURVE BIQUADRATIC 221 output is not equal to 1.0 (+ or - 10%) at rated conditions.\n   **   ~~~   ** ... Curve output at rated conditions = 1.437\n   ************* Beginning Plant Sizing Calculations\n   ** Warning ** Output:Meter:MeterFileOnly requested for \"Electricity:Facility\" (TimeStep), already on \"Output:Meter\". Will report to both eplusout.eso and eplusout.mtr\n   ************* Testing Individual Branch Integrity\n   ************* All Branches passed integrity testing\n   ************* Testing Individual Supply Air Path Integrity\n   ************* All Supply Air Paths passed integrity testing\n   ************* Testing Individual Return Air Path Integrity\n   ************* All Return Air Paths passed integrity testing\n   ************* No node connection errors were found.\n   ************* Beginning Simulation\n   ** Warning ** Processing Monthly Tabular Reports: Variable names not valid for this simulation\n   **   ~~~   ** ...use Output:Diagnostics,DisplayExtraWarnings; to show more details on individual variables.\n   ** Warning ** SimHVAC: Maximum iterations (20) exceeded for all HVAC loops, at RUN PERIOD 1, 01/01 09:00 - 10:00\n   **   ~~~   ** The solution for one or more plant systems did not appear to converge\n   **   ~~~   ** ...use Output:Diagnostics,DisplayExtraWarnings; to show more details on each max iteration exceeded.\n   ** Warning ** SimHVAC: Maximum iterations (20) exceeded for all HVAC loops, at RUN PERIOD 1, 01/01 09:20 - 09:40\n   **   ~~~   ** The solution for one or more plant systems did not appear to converge\n   ** Warning ** CalcDoe2DXCoil: Coil:Cooling:DX:SingleSpeed \"COIL COOLING DX SINGLE SPEED 65\" - Full load outlet air dry-bulb temperature < 2C. This indicates the possibility of coil frost/freeze. Outlet temperature = 1.49 C.\n   **   ~~~   **  ...Occurrence info = RUN PERIOD 1, 01/01 16:00 - 16:06\n   **   ~~~   ** ... Possible reasons for low outlet air dry-bulb temperatures are: This DX coil\n   **   ~~~   **    1) may have a low inlet air dry-bulb temperature. Inlet air temperature = 21.363 C.\n   **   ~~~   **    2) may have a low air flow rate per watt of cooling capacity. Check inputs.\n   **   ~~~   **    3) is used as part of a HX assisted cooling coil which uses a high sensible effectiveness. Check inputs.\n   ** Warning ** CalcDoe2DXCoil: Coil:Cooling:DX:SingleSpeed \"COIL COOLING DX SINGLE SPEED 82\" - Full load outlet air dry-bulb temperature < 2C. This indicates the possibility of coil frost/freeze. Outlet temperature = 1.62 C.\n   **   ~~~   **  ...Occurrence info = RUN PERIOD 1, 01/01 16:00 - 16:06\n   **   ~~~   ** ... Possible reasons for low outlet air dry-bulb temperatures are: This DX coil\n   **   ~~~   **    1) may have a low inlet air dry-bulb temperature. Inlet air temperature = 21.450 C.\n   **   ~~~   **    2) may have a low air flow rate per watt of cooling capacity. Check inputs.\n   **   ~~~   **    3) is used as part of a HX assisted cooling coil which uses a high sensible effectiveness. Check inputs.\n   ** Warning ** SimHVAC: Maximum iterations (20) exceeded for all HVAC loops, at RUN PERIOD 1, 01/02 09:00 - 10:00\n   **   ~~~   ** The solution for one or more plant systems did not appear to converge\n   ** Warning ** SimHVAC: Maximum iterations (20) exceeded for all HVAC loops, at RUN PERIOD 1, 01/02 09:30 - 09:40\n   **   ~~~   ** The solution for one or more plant systems did not appear to converge\n   ** Warning ** SimHVAC: Maximum iterations (20) exceeded for all HVAC loops, at RUN PERIOD 1, 01/02 09:40 - 09:50\n   **   ~~~   ** The solution for one or more plant systems did not appear to converge\n   ** Warning ** SimHVAC: Maximum iterations (20) exceeded for all HVAC loops, at RUN PERIOD 1, 01/02 09:50 - 10:00\n   **   ~~~   ** The solution for one or more plant systems did not appear to converge\n   ** Warning ** CalcDoe2DXCoil: Coil:Cooling:DX:SingleSpeed \"COIL COOLING DX SINGLE SPEED 67\" - Full load outlet air dry-bulb temperature < 2C. This indicates the possibility of coil frost/freeze. Outlet temperature = 1.73 C.\n   **   ~~~   **  ...Occurrence info = RUN PERIOD 1, 01/02 16:00 - 16:08\n   **   ~~~   ** ... Possible reasons for low outlet air dry-bulb temperatures are: This DX coil\n   **   ~~~   **    1) may have a low inlet air dry-bulb temperature. Inlet air temperature = 22.429 C.\n   **   ~~~   **    2) may have a low air flow rate per watt of cooling capacity. Check inputs.\n   **   ~~~   **    3) is used as part of a HX assisted cooling coil which uses a high sensible effectiveness. Check inputs.\n   ** Warning ** CalcDoe2DXCoil: Coil:Cooling:DX:SingleSpeed \"COIL COOLING DX SINGLE SPEED 84\" - Full load outlet air dry-bulb temperature < 2C. This indicates the possibility of coil frost/freeze. Outlet temperature = 1.63 C.\n   **   ~~~   **  ...Occurrence info = RUN PERIOD 1, 01/02 16:00 - 16:08\n   **   ~~~   ** ... Possible reasons for low outlet air dry-bulb temperatures are: This DX coil\n   **   ~~~   **    1) may have a low inlet air dry-bulb temperature. Inlet air temperature = 22.328 C.\n   **   ~~~   **    2) may have a low air flow rate per watt of cooling capacity. Check inputs.\n   **   ~~~   **    3) is used as part of a HX assisted cooling coil which uses a high sensible effectiveness. Check inputs.\n   ** Warning ** SimHVAC: Maximum iterations (20) exceeded for all HVAC loops, at RUN PERIOD 1, 01/02 19:00 - 19:10\n   **   ~~~   ** The solution for one or more plant systems did not appear to converge\n   ** Warning ** CalcDoe2DXCoil: Coil:Cooling:DX:SingleSpeed \"COIL COOLING DX SINGLE SPEED 83\" - Air-cooled condenser inlet dry-bulb temperature below 0 C. Outdoor dry-bulb temperature = -1.10\n   **   ~~~   **  ... Occurrence info = RUN PERIOD 1, 01/02 19:00 - 19:10\n   **   ~~~   ** ... Operation at low ambient temperatures may require special performance curves.\n   ** Warning ** SimHVAC: Maximum iterations (20) exceeded for all HVAC loops, at RUN PERIOD 1, 01/03 09:00 - 10:00\n   **   ~~~   ** The solution for one or more plant systems did not appear to converge\n   ** Warning ** SimHVAC: Maximum iterations (20) exceeded for all HVAC loops, at RUN PERIOD 1, 01/03 09:20 - 09:40\n   **   ~~~   ** The solution for one or more plant systems did not appear to converge\n   ** Warning ** SimHVAC: Maximum iterations (20) exceeded for all HVAC loops, at RUN PERIOD 1, 01/04 09:00 - 10:00\n   **   ~~~   ** The solution for one or more plant systems did not appear to converge\n   ** Warning ** SimHVAC: Maximum iterations (20) exceeded for all HVAC loops, at RUN PERIOD 1, 01/04 09:20 - 09:40\n   **   ~~~   ** The solution for one or more plant systems did not appear to converge\n   ** Warning ** SimHVAC: Maximum iterations (20) exceeded for all HVAC loops, at RUN PERIOD 1, 01/05 09:00 - 10:00\n   **   ~~~   ** The solution for one or more plant systems did not appear to converge\n   ** Warning ** SimHVAC: Maximum iterations (20) exceeded for all HVAC loops, at RUN PERIOD 1, 01/06 09:00 - 10:00\n   **   ~~~   ** The solution for one or more plant systems did not appear to converge\n   ** Warning ** SimHVAC: Maximum iterations (20) exceeded for all HVAC loops, at RUN PERIOD 1, 01/06 09:30 - 09:45\n   **   ~~~   ** The solution for one or more plant systems did not appear to converge\n   ** Warning ** CalcDoe2DXCoil: Coil:Cooling:DX:SingleSpeed \"COIL COOLING DX SINGLE SPEED 10\" - Full load outlet air dry-bulb temperature < 2C. This indicates the possibility of coil frost/freeze. Outlet temperature = 1.17 C.\n   **   ~~~   **  ...Occurrence info = RUN PERIOD 1, 05/04 20:00 - 20:15\n   **   ~~~   ** ... Possible reasons for low outlet air dry-bulb temperatures are: This DX coil\n   **   ~~~   **    1) may have a low inlet air dry-bulb temperature. Inlet air temperature = 17.800 C.\n   **   ~~~   **    2) may have a low air flow rate per watt of cooling capacity. Check inputs.\n   **   ~~~   **    3) is used as part of a HX assisted cooling coil which uses a high sensible effectiveness. Check inputs.\n   ** Warning ** CalcDoe2DXCoil: Coil:Cooling:DX:SingleSpeed \"COIL COOLING DX SINGLE SPEED 11\" - Full load outlet air dry-bulb temperature < 2C. This indicates the possibility of coil frost/freeze. Outlet temperature = 1.17 C.\n   **   ~~~   **  ...Occurrence info = RUN PERIOD 1, 05/04 20:00 - 20:15\n   **   ~~~   ** ... Possible reasons for low outlet air dry-bulb temperatures are: This DX coil\n   **   ~~~   **    1) may have a low inlet air dry-bulb temperature. Inlet air temperature = 17.800 C.\n   **   ~~~   **    2) may have a low air flow rate per watt of cooling capacity. Check inputs.\n   **   ~~~   **    3) is used as part of a HX assisted cooling coil which uses a high sensible effectiveness. Check inputs.\n   ** Warning ** CalcDoe2DXCoil: Coil:Cooling:DX:SingleSpeed \"COIL COOLING DX SINGLE SPEED 9\" - Full load outlet air dry-bulb temperature < 2C. This indicates the possibility of coil frost/freeze. Outlet temperature = 1.67 C.\n   **   ~~~   **  ...Occurrence info = RUN PERIOD 1, 05/07 19:00 - 19:12\n   **   ~~~   ** ... Possible reasons for low outlet air dry-bulb temperatures are: This DX coil\n   **   ~~~   **    1) may have a low inlet air dry-bulb temperature. Inlet air temperature = 16.700 C.\n   **   ~~~   **    2) may have a low air flow rate per watt of cooling capacity. Check inputs.\n   **   ~~~   **    3) is used as part of a HX assisted cooling coil which uses a high sensible effectiveness. Check inputs.\n   ** Warning ** CalcDoe2DXCoil: Coil:Cooling:DX:SingleSpeed \"COIL COOLING DX SINGLE SPEED 12\" - Full load outlet air dry-bulb temperature < 2C. This indicates the possibility of coil frost/freeze. Outlet temperature = 1.95 C.\n   **   ~~~   **  ...Occurrence info = RUN PERIOD 1, 05/15 17:12 - 17:18\n   **   ~~~   ** ... Possible reasons for low outlet air dry-bulb temperatures are: This DX coil\n   **   ~~~   **    1) may have a low inlet air dry-bulb temperature. Inlet air temperature = 21.100 C.\n   **   ~~~   **    2) may have a low air flow rate per watt of cooling capacity. Check inputs.\n   **   ~~~   **    3) is used as part of a HX assisted cooling coil which uses a high sensible effectiveness. Check inputs.\n   ** Warning ** Plant Loop: DHW Demand Side is storing excess heat the majority of the time.\n   ** Warning ** Plant Loop: DHW Supply Side is storing excess heat the majority of the time.\n   ** Warning ** The resource referenced by LifeCycleCost:UsePriceEscalation= \"U.S. AVG  COMMERCIAL-ELECTRICITY\" has no energy cost. \n   **   ~~~   ** ... It is likely that the wrong resource is used. The resource should match the meter used in Utility:Tariff.\n   ** Warning ** The resource referenced by LifeCycleCost:UsePriceEscalation= \"U.S. AVG  COMMERCIAL-DISTILLATE OIL\" has no energy cost. \n   **   ~~~   ** ... It is likely that the wrong resource is used. The resource should match the meter used in Utility:Tariff.\n   ** Warning ** The resource referenced by LifeCycleCost:UsePriceEscalation= \"U.S. AVG  COMMERCIAL-RESIDUAL OIL\" has no energy cost. \n   **   ~~~   ** ... It is likely that the wrong resource is used. The resource should match the meter used in Utility:Tariff.\n   ** Warning ** The resource referenced by LifeCycleCost:UsePriceEscalation= \"U.S. AVG  COMMERCIAL-NATURAL GAS\" has no energy cost. \n   **   ~~~   ** ... It is likely that the wrong resource is used. The resource should match the meter used in Utility:Tariff.\n   ** Warning ** The resource referenced by LifeCycleCost:UsePriceEscalation= \"U.S. AVG  COMMERCIAL-COAL\" has no energy cost. \n   **   ~~~   ** ... It is likely that the wrong resource is used. The resource should match the meter used in Utility:Tariff.\n   ************* Simulation Error Summary *************\n   ************* There are 21 unused schedules in input.\n   ************* There are 21 unused week schedules in input.\n   ************* There are 36 unused day schedules in input.\n   ************* Use Output:Diagnostics,DisplayUnusedSchedules; to see them.\n   *************\n   ************* ===== Recurring Error Summary =====\n   ************* The following recurring error messages occurred.\n   *************\n   *************  ** Warning ** CalcDoe2DXCoil: Coil:Cooling:DX:SingleSpeed=\"COIL COOLING DX SINGLE SPEED 65\" - Full load outlet temperature indicates a possibility of frost/freeze error continues. Outlet air temperature statistics follow:\n   *************  **   ~~~   **   This error occurred 5 total times;\n   *************  **   ~~~   **   during Warmup 0 times;\n   *************  **   ~~~   **   during Sizing 0 times.\n   *************  **   ~~~   **   Max=1.783724  Min=1.069222\n   *************\n   *************  ** Warning ** CalcDoe2DXCoil: Coil:Cooling:DX:SingleSpeed=\"COIL COOLING DX SINGLE SPEED 82\" - Full load outlet temperature indicates a possibility of frost/freeze error continues. Outlet air temperature statistics follow:\n   *************  **   ~~~   **   This error occurred 7 total times;\n   *************  **   ~~~   **   during Warmup 0 times;\n   *************  **   ~~~   **   during Sizing 0 times.\n   *************  **   ~~~   **   Max=1.772614  Min=1.193296\n   *************\n   *************  ** Warning ** CalcDoe2DXCoil: Coil:Cooling:DX:SingleSpeed=\"COIL COOLING DX SINGLE SPEED 67\" - Full load outlet temperature indicates a possibility of frost/freeze error continues. Outlet air temperature statistics follow:\n   *************  **   ~~~   **   This error occurred 1 total times;\n   *************  **   ~~~   **   during Warmup 0 times;\n   *************  **   ~~~   **   during Sizing 0 times.\n   *************  **   ~~~   **   Max=1.731101  Min=1.731101\n   *************\n   *************  ** Warning ** CalcDoe2DXCoil: Coil:Cooling:DX:SingleSpeed=\"COIL COOLING DX SINGLE SPEED 84\" - Full load outlet temperature indicates a possibility of frost/freeze error continues. Outlet air temperature statistics follow:\n   *************  **   ~~~   **   This error occurred 1 total times;\n   *************  **   ~~~   **   during Warmup 0 times;\n   *************  **   ~~~   **   during Sizing 0 times.\n   *************  **   ~~~   **   Max=1.630121  Min=1.630121\n   *************\n   *************  ** Warning ** CalcDoe2DXCoil: Coil:Cooling:DX:SingleSpeed=\"COIL COOLING DX SINGLE SPEED 83\" - Low condenser dry-bulb temperature error continues...\n   *************  **   ~~~   **   This error occurred 6 total times;\n   *************  **   ~~~   **   during Warmup 0 times;\n   *************  **   ~~~   **   during Sizing 0 times.\n   *************  **   ~~~   **   Max=-1.1 [C]  Min=-1.1 [C]\n   *************\n   *************  ** Warning ** SimHVAC: Exceeding Maximum iterations for all HVAC loops, during RUN PERIOD 1 continues\n   *************  **   ~~~   **   This error occurred 1055 total times;\n   *************  **   ~~~   **   during Warmup 0 times;\n   *************  **   ~~~   **   during Sizing 0 times.\n   *************\n   *************  ** Warning ** CalcDoe2DXCoil: Coil:Cooling:DX:SingleSpeed=\"COIL COOLING DX SINGLE SPEED 10\" - Full load outlet temperature indicates a possibility of frost/freeze error continues. Outlet air temperature statistics follow:\n   *************  **   ~~~   **   This error occurred 941 total times;\n   *************  **   ~~~   **   during Warmup 0 times;\n   *************  **   ~~~   **   during Sizing 0 times.\n   *************  **   ~~~   **   Max=1.956873  Min=-3.663115\n   *************\n   *************  ** Warning ** CalcDoe2DXCoil: Coil:Cooling:DX:SingleSpeed=\"COIL COOLING DX SINGLE SPEED 11\" - Full load outlet temperature indicates a possibility of frost/freeze error continues. Outlet air temperature statistics follow:\n   *************  **   ~~~   **   This error occurred 1516 total times;\n   *************  **   ~~~   **   during Warmup 0 times;\n   *************  **   ~~~   **   during Sizing 0 times.\n   *************  **   ~~~   **   Max=1.989209  Min=-5.992291\n   *************\n   *************  ** Warning ** CalcDoe2DXCoil: Coil:Cooling:DX:SingleSpeed=\"COIL COOLING DX SINGLE SPEED 9\" - Full load outlet temperature indicates a possibility of frost/freeze error continues. Outlet air temperature statistics follow:\n   *************  **   ~~~   **   This error occurred 379 total times;\n   *************  **   ~~~   **   during Warmup 0 times;\n   *************  **   ~~~   **   during Sizing 0 times.\n   *************  **   ~~~   **   Max=1.956873  Min=-1.766386\n   *************\n   *************  ** Warning ** CalcDoe2DXCoil: Coil:Cooling:DX:SingleSpeed=\"COIL COOLING DX SINGLE SPEED 12\" - Full load outlet temperature indicates a possibility of frost/freeze error continues. Outlet air temperature statistics follow:\n   *************  **   ~~~   **   This error occurred 99 total times;\n   *************  **   ~~~   **   during Warmup 0 times;\n   *************  **   ~~~   **   during Sizing 0 times.\n   *************  **   ~~~   **   Max=1.953678  Min=-1.083789\n   *************\n   *************\n   ************* ===== Final Error Summary =====\n   ************* The following error categories occurred.  Consider correcting or noting.\n   ************* InterZone Surface Areas -- mismatch\n   ************* ..Area mismatch errors happen when the interzone surface in zone A is\n   ************* ..not the same size as it's companion in zone B.\n   ************* Nominally Unused Constructions\n   ************* ..The nominally unused constructions warning is provided to alert you to potential conditions that can cause\n   ************* ..extra time during simulation. Each construction is calculated by the algorithm indicated in the HeatBalanceAlgorithm\n   ************* ..object. You may remove the constructions indicated (when you use the DisplayExtraWarnings option).\n   *************\n   ************* EnergyPlus Warmup Error Summary. During Warmup: 0 Warning; 0 Severe Errors.\n   ************* EnergyPlus Sizing Error Summary. During Sizing: 418 Warning; 0 Severe Errors.\n   ************* EnergyPlus Completed Successfully-- 4477 Warning; 18 Severe Errors; Elapsed Time=00hr 02min 12.42sec\n",
   "file_paths" : 
   [
      "C:/Users/hyunwoo/AppData/Local/Temp/osmodel-1590172233-0/resources/generated_files",
      "./files",
      "./weather",
      "../../files",
      "../../weather",
      "./"
   ],
   "hash" : "FBC6483D",
   "seed_file" : "../baseline.osm",
   "started_at" : "20200522T184835Z",
   "steps" : [],
   "updated_at" : "20200522T185057Z",
   "weather_file" : "USA_WA_Seattle-Tacoma.727930_TMY2.epw"
}